@<TRIPOS>MOLECULE
*****
 33 37 0 0 0
SMALL
GASTEIGER

@<TRIPOS>ATOM
      1 C          61.5956   87.0564    9.9136 C.ar    1  UNL1        0.0929
      2 C          60.1424   86.9769    9.5506 C.ar    1  UNL1        0.0405
      3 C          59.3761   88.2297    9.2452 C.ar    1  UNL1        0.1034
      4 N          60.0631   89.5619    9.3027 N.ar    1  UNL1       -0.2120
      5 C          61.5163   89.6414    9.6657 C.ar    1  UNL1        0.2217
      6 N          62.2826   88.3886    9.9711 N.ar    1  UNL1       -0.2130
      7 C          63.0007   85.0854    7.7248 C.3     1  UNL1        0.0527
      8 C          63.0078   84.8976    9.2129 C.ar    1  UNL1        0.0687
      9 N          63.6620   83.7710    9.9563 N.ar    1  UNL1       -0.2286
     10 C          63.4205   83.9806   11.4219 C.ar    1  UNL1        0.1595
     11 S          62.6171   85.2368   11.5842 S.2     1  UNL1       -0.0506
     12 C          62.3620   85.8036   10.2190 C.ar    1  UNL1        0.0634
     13 N          63.8986   83.0903   12.5304 N.pl3   1  UNL1       -0.3146
     14 H          64.7988   83.2153   12.9087 H       1  UNL1        0.1486
     15 C          63.0049   82.0094   13.0626 C.3     1  UNL1        0.0708
     16 C          63.0117   80.5709   12.6375 C.3     1  UNL1        0.0195
     17 C          61.9585   79.8498   13.4255 C.3     1  UNL1        0.0017
     18 C          61.3009   80.8426   14.3376 C.3     1  UNL1        0.0017
     19 C          61.9476   82.1773   14.1133 C.3     1  UNL1        0.0195
     20 N          62.2032   90.9736    9.7233 N.pl3   1  UNL1       -0.2680
     21 H          61.9838   91.6695    9.0624 H       1  UNL1        0.1565
     22 C          63.2245   91.2455   10.7877 C.ar    1  UNL1        0.1344
     23 C          64.4410   92.0631   10.4686 C.ar    1  UNL1        0.0358
     24 C          65.4622   92.3350   11.5331 C.ar    1  UNL1        0.0190
     25 C          65.2671   91.7893   12.9166 C.ar    1  UNL1        0.0675
     26 C          64.0507   90.9717   13.2357 C.ar    1  UNL1        0.1147
     27 N          63.0293   90.6998   12.1712 N.ar    1  UNL1       -0.2277
     28 N          66.2884   92.0612   13.9811 N.pl3   1  UNL1       -0.3015
     29 C          67.7504   91.9677   13.6591 C.3     1  UNL1        0.1231
     30 C          68.7717   92.2396   14.7235 C.3     1  UNL1        0.1636
     31 O          68.3309   92.6050   16.1099 O.3     1  UNL1       -0.3501
     32 C          66.8689   92.6986   16.4319 C.3     1  UNL1        0.1636
     33 C          65.8476   92.4267   15.3675 C.3     1  UNL1        0.1231
@<TRIPOS>BOND
     1     7     8    1
     2     8     9   ar
     3     9    10   ar
     4    10    13    1
     5    13    15    1
     6    15    16    1
     7    16    17    1
     8    17    18    1
     9    18    19    1
    10    10    11   ar
    11    11    12   ar
    12    12     1    1
    13     1     2   ar
    14     2     3   ar
    15     3     4   ar
    16     4     5   ar
    17     5    20    1
    18    20    22    1
    19    22    23   ar
    20    23    24   ar
    21    24    25   ar
    22    25    28    1
    23    28    29    1
    24    29    30    1
    25    30    31    1
    26    31    32    1
    27    32    33    1
    28    25    26   ar
    29    26    27   ar
    30     5     6   ar
    31    12     8   ar
    32     6     1   ar
    33    19    15    1
    34    27    22   ar
    35    33    28    1
    36    13    14    1
    37    20    21    1
@<TRIPOS>MOLECULE
*****
 33 37 0 0 0
SMALL
GASTEIGER

@<TRIPOS>ATOM
      1 C          61.4578   86.7453    9.4455 C.ar    1  UNL1        0.0929
      2 C          60.4186   86.4975    8.3926 C.ar    1  UNL1        0.0405
      3 C          59.6062   87.6392    7.8574 C.ar    1  UNL1        0.1034
      4 N          59.8329   89.0287    8.3751 N.ar    1  UNL1       -0.2120
      5 C          60.8721   89.2764    9.4280 C.ar    1  UNL1        0.2217
      6 N          61.6846   88.1348    9.9632 N.ar    1  UNL1       -0.2130
      7 C          63.1715   84.6112    7.6682 C.3     1  UNL1        0.0527
      8 C          63.0579   84.6227    9.1639 C.ar    1  UNL1        0.0687
      9 N          63.7122   83.6553   10.1051 N.ar    1  UNL1       -0.2286
     10 C          63.3289   84.0383   11.5039 C.ar    1  UNL1        0.1595
     11 S          62.4378   85.2424   11.4270 S.2     1  UNL1       -0.0506
     12 C          62.2703   85.6036    9.9808 C.ar    1  UNL1        0.0634
     13 N          63.7609   83.3398   12.7591 N.pl3   1  UNL1       -0.3146
     14 H          64.1654   82.4436   12.7094 H       1  UNL1        0.1486
     15 C          63.5765   84.0067   14.0900 C.3     1  UNL1        0.0708
     16 C          62.4276   83.7948   15.0307 C.3     1  UNL1        0.0195
     17 C          62.6497   84.6597   16.2359 C.3     1  UNL1        0.0017
     18 C          63.9359   85.4062   16.0400 C.3     1  UNL1        0.0017
     19 C          64.5087   85.0027   14.7138 C.3     1  UNL1        0.0195
     20 N          61.0989   90.6659    9.9457 N.pl3   1  UNL1       -0.2680
     21 H          60.4802   91.3906    9.6980 H       1  UNL1        0.1565
     22 C          62.2682   90.9512   10.8408 C.ar    1  UNL1        0.1344
     23 C          63.4750   91.6564   10.2964 C.ar    1  UNL1        0.0358
     24 C          64.6443   91.9418   11.1915 C.ar    1  UNL1        0.0190
     25 C          64.6069   91.5219   12.6311 C.ar    1  UNL1        0.0675
     26 C          63.4001   90.8167   13.1755 C.ar    1  UNL1        0.1147
     27 N          62.2307   90.5314   12.2804 N.ar    1  UNL1       -0.2277
     28 N          65.7763   91.8073   13.5262 N.pl3   1  UNL1       -0.3015
     29 C          65.5618   92.0196   14.9955 C.3     1  UNL1        0.1231
     30 C          66.7312   92.3049   15.8905 C.3     1  UNL1        0.1636
     31 O          68.1150   92.3780   15.3163 O.3     1  UNL1       -0.3501
     32 C          68.3294   92.1657   13.8470 C.3     1  UNL1        0.1636
     33 C          67.1601   91.8804   12.9519 C.3     1  UNL1        0.1231
@<TRIPOS>BOND
     1     7     8    1
     2     8     9   ar
     3     9    10   ar
     4    10    13    1
     5    13    15    1
     6    15    16    1
     7    16    17    1
     8    17    18    1
     9    18    19    1
    10    10    11   ar
    11    11    12   ar
    12    12     1    1
    13     1     2   ar
    14     2     3   ar
    15     3     4   ar
    16     4     5   ar
    17     5    20    1
    18    20    22    1
    19    22    23   ar
    20    23    24   ar
    21    24    25   ar
    22    25    28    1
    23    28    29    1
    24    29    30    1
    25    30    31    1
    26    31    32    1
    27    32    33    1
    28    25    26   ar
    29    26    27   ar
    30     5     6   ar
    31    12     8   ar
    32     6     1   ar
    33    19    15    1
    34    27    22   ar
    35    33    28    1
    36    13    14    1
    37    20    21    1
@<TRIPOS>MOLECULE
*****
 33 37 0 0 0
SMALL
GASTEIGER

@<TRIPOS>ATOM
      1 C          64.7611   90.8192   14.9973 C.ar    1  UNL1        0.0929
      2 C          63.9502   91.1083   16.2256 C.ar    1  UNL1        0.0405
      3 C          63.1744   90.0086   16.8880 C.ar    1  UNL1        0.1034
      4 N          63.2096   88.6199   16.3222 N.ar    1  UNL1       -0.2120
      5 C          64.0206   88.3308   15.0940 C.ar    1  UNL1        0.2217
      6 N          64.7963   89.4304   14.4315 N.ar    1  UNL1       -0.2130
      7 C          67.2016   92.5215   16.3375 C.3     1  UNL1        0.0527
      8 C          66.6587   92.7013   14.9508 C.ar    1  UNL1        0.0687
      9 N          67.1422   93.6951   13.9367 N.ar    1  UNL1       -0.2286
     10 C          66.3193   93.5269   12.6938 C.ar    1  UNL1        0.1595
     11 S          65.3272   92.4291   12.9399 S.2     1  UNL1       -0.0506
     12 C          65.5369   91.9189   14.3348 C.ar    1  UNL1        0.0634
     13 N          66.4632   94.3177   11.4273 N.pl3   1  UNL1       -0.3146
     14 H          66.0390   95.2026   11.3486 H       1  UNL1        0.1486
     15 C          67.2535   93.7601   10.2808 C.3     1  UNL1        0.0708
     16 C          67.5329   94.4558    8.9816 C.3     1  UNL1        0.0195
     17 C          68.3553   93.5347    8.1300 C.3     1  UNL1        0.0017
     18 C          68.5842   92.2696    8.9029 C.3     1  UNL1        0.0017
     19 C          67.9033   92.4090   10.2322 C.3     1  UNL1        0.0195
     20 N          64.0558   86.9420   14.5282 N.pl3   1  UNL1       -0.2680
     21 H          64.4698   86.2115   15.0421 H       1  UNL1        0.1565
     22 C          63.4602   86.6664   13.1794 C.ar    1  UNL1        0.1344
     23 C          63.3248   85.2536   12.6938 C.ar    1  UNL1        0.0358
     24 C          62.7292   84.9779   11.3451 C.ar    1  UNL1        0.0190
     25 C          62.2689   86.1150   10.4818 C.ar    1  UNL1        0.0675
     26 C          62.4042   87.5277   10.9673 C.ar    1  UNL1        0.1147
     27 N          62.9999   87.8034   12.3162 N.ar    1  UNL1       -0.2277
     28 N          61.6732   85.8392    9.1330 N.pl3   1  UNL1       -0.3015
     29 C          60.2938   86.3305    8.8076 C.3     1  UNL1        0.1231
     30 C          59.6983   86.0548    7.4589 C.3     1  UNL1        0.1636
     31 O          60.4821   85.2877    6.4355 O.3     1  UNL1       -0.3501
     32 C          61.8615   84.7965    6.7609 C.3     1  UNL1        0.1636
     33 C          62.4570   85.0722    8.1096 C.3     1  UNL1        0.1231
@<TRIPOS>BOND
     1     7     8    1
     2     8     9   ar
     3     9    10   ar
     4    10    13    1
     5    13    15    1
     6    15    16    1
     7    16    17    1
     8    17    18    1
     9    18    19    1
    10    10    11   ar
    11    11    12   ar
    12    12     1    1
    13     1     2   ar
    14     2     3   ar
    15     3     4   ar
    16     4     5   ar
    17     5    20    1
    18    20    22    1
    19    22    23   ar
    20    23    24   ar
    21    24    25   ar
    22    25    28    1
    23    28    29    1
    24    29    30    1
    25    30    31    1
    26    31    32    1
    27    32    33    1
    28    25    26   ar
    29    26    27   ar
    30     5     6   ar
    31    12     8   ar
    32     6     1   ar
    33    19    15    1
    34    27    22   ar
    35    33    28    1
    36    13    14    1
    37    20    21    1
@<TRIPOS>MOLECULE
*****
 33 37 0 0 0
SMALL
GASTEIGER

@<TRIPOS>ATOM
      1 C          63.2690   90.3552   13.9944 C.ar    1  UNL1        0.0929
      2 C          63.6991   91.5515   14.7905 C.ar    1  UNL1        0.0405
      3 C          63.9973   91.4107   16.2538 C.ar    1  UNL1        0.1034
      4 N          63.8654   90.0737   16.9209 N.ar    1  UNL1       -0.2120
      5 C          63.4352   88.8775   16.1248 C.ar    1  UNL1        0.2217
      6 N          63.1370   89.0182   14.6615 N.ar    1  UNL1       -0.2130
      7 C          65.0839   91.9669   11.8130 C.3     1  UNL1        0.0527
      8 C          63.8050   91.2367   11.5284 C.ar    1  UNL1        0.0687
      9 N          63.1357   91.1191   10.1912 N.ar    1  UNL1       -0.2286
     10 C          61.8878   90.3056   10.3673 C.ar    1  UNL1        0.1595
     11 S          61.7858   89.9204   11.8134 S.2     1  UNL1       -0.0506
     12 C          62.9707   90.4959   12.5310 C.ar    1  UNL1        0.0634
     13 N          60.9130   89.9413    9.2870 N.pl3   1  UNL1       -0.3146
     14 H          60.4174   90.6473    8.8125 H       1  UNL1        0.1486
     15 C          60.6933   88.5011    8.9296 C.3     1  UNL1        0.0708
     16 C          59.5425   87.9549    8.1375 C.3     1  UNL1        0.0195
     17 C          59.7238   86.4706    8.0199 C.3     1  UNL1        0.0017
     18 C          60.9867   86.0994    8.7393 C.3     1  UNL1        0.0017
     19 C          61.5859   87.3543    9.3015 C.3     1  UNL1        0.0195
     20 N          63.3033   87.5405   16.7919 N.pl3   1  UNL1       -0.2680
     21 H          63.2774   87.4810   17.7742 H       1  UNL1        0.1565
     22 C          63.2107   86.2942   15.9623 C.ar    1  UNL1        0.1344
     23 C          64.3036   85.9562   14.9920 C.ar    1  UNL1        0.0358
     24 C          64.2110   84.7100   14.1625 C.ar    1  UNL1        0.0190
     25 C          63.0256   83.8017   14.3031 C.ar    1  UNL1        0.0675
     26 C          61.9327   84.1397   15.2733 C.ar    1  UNL1        0.1147
     27 N          62.0252   85.3860   16.1029 N.ar    1  UNL1       -0.2277
     28 N          62.9331   82.5554   13.4734 N.pl3   1  UNL1       -0.3015
     29 C          62.4317   81.2817   14.0867 C.3     1  UNL1        0.1231
     30 C          62.3392   80.0354   13.2571 C.3     1  UNL1        0.1636
     31 O          62.7480   80.0630   11.8142 O.3     1  UNL1       -0.3501
     32 C          63.2494   81.3367   11.2009 C.3     1  UNL1        0.1636
     33 C          63.3419   82.5829   12.0305 C.3     1  UNL1        0.1231
@<TRIPOS>BOND
     1     7     8    1
     2     8     9   ar
     3     9    10   ar
     4    10    13    1
     5    13    15    1
     6    15    16    1
     7    16    17    1
     8    17    18    1
     9    18    19    1
    10    10    11   ar
    11    11    12   ar
    12    12     1    1
    13     1     2   ar
    14     2     3   ar
    15     3     4   ar
    16     4     5   ar
    17     5    20    1
    18    20    22    1
    19    22    23   ar
    20    23    24   ar
    21    24    25   ar
    22    25    28    1
    23    28    29    1
    24    29    30    1
    25    30    31    1
    26    31    32    1
    27    32    33    1
    28    25    26   ar
    29    26    27   ar
    30     5     6   ar
    31    12     8   ar
    32     6     1   ar
    33    19    15    1
    34    27    22   ar
    35    33    28    1
    36    13    14    1
    37    20    21    1
@<TRIPOS>MOLECULE
*****
 33 37 0 0 0
SMALL
GASTEIGER

@<TRIPOS>ATOM
      1 C          60.8740   87.9704    9.3877 C.ar    1  UNL1        0.0929
      2 C          60.8951   86.5251    8.9867 C.ar    1  UNL1        0.0405
      3 C          60.0730   86.0578    7.8224 C.ar    1  UNL1        0.1034
      4 N          59.2298   87.0357    7.0590 N.ar    1  UNL1       -0.2120
      5 C          59.2086   88.4809    7.4600 C.ar    1  UNL1        0.2217
      6 N          60.0307   88.9482    8.6243 N.ar    1  UNL1       -0.2130
      7 C          62.5126   86.0629   11.4677 C.3     1  UNL1        0.0527
      8 C          62.4493   87.5610   11.5081 C.ar    1  UNL1        0.0687
      9 N          63.1280   88.4454   12.5117 N.ar    1  UNL1       -0.2286
     10 C          62.7943   89.8688   12.1759 C.ar    1  UNL1        0.1595
     11 S          61.9094   89.8640   10.9648 S.2     1  UNL1       -0.0506
     12 C          61.6961   88.4378   10.5520 C.ar    1  UNL1        0.0634
     13 N          63.2633   91.0835   12.9205 N.pl3   1  UNL1       -0.3146
     14 H          62.6774   91.5085   13.5878 H       1  UNL1        0.1486
     15 C          64.6249   91.6509   12.6482 C.3     1  UNL1        0.0708
     16 C          65.7608   91.7245   13.6250 C.3     1  UNL1        0.0195
     17 C          66.9276   92.3633   12.9318 C.3     1  UNL1        0.0017
     18 C          66.5128   92.6845   11.5266 C.3     1  UNL1        0.0017
     19 C          65.0896   92.2442   11.3512 C.3     1  UNL1        0.0195
     20 N          58.3654   89.4588    6.6967 N.pl3   1  UNL1       -0.2680
     21 H          57.3935   89.4951    6.8495 H       1  UNL1        0.1565
     22 C          59.0029   90.3813    5.7005 C.ar    1  UNL1        0.1344
     23 C          58.1599   91.3611    4.9391 C.ar    1  UNL1        0.0358
     24 C          58.7974   92.2836    3.9429 C.ar    1  UNL1        0.0190
     25 C          60.2778   92.2264    3.7080 C.ar    1  UNL1        0.0675
     26 C          61.1207   91.2467    4.4693 C.ar    1  UNL1        0.1147
     27 N          60.4832   90.3241    5.4656 N.ar    1  UNL1       -0.2277
     28 N          60.9153   93.1491    2.7117 N.pl3   1  UNL1       -0.3015
     29 C          60.2117   94.4073    2.2974 C.3     1  UNL1        0.1231
     30 C          60.8492   95.3298    1.3012 C.3     1  UNL1        0.1636
     31 O          62.1903   94.9941    0.7193 O.3     1  UNL1       -0.3501
     32 C          62.8939   93.7359    1.1335 C.3     1  UNL1        0.1636
     33 C          62.2564   92.8133    2.1297 C.3     1  UNL1        0.1231
@<TRIPOS>BOND
     1     7     8    1
     2     8     9   ar
     3     9    10   ar
     4    10    13    1
     5    13    15    1
     6    15    16    1
     7    16    17    1
     8    17    18    1
     9    18    19    1
    10    10    11   ar
    11    11    12   ar
    12    12     1    1
    13     1     2   ar
    14     2     3   ar
    15     3     4   ar
    16     4     5   ar
    17     5    20    1
    18    20    22    1
    19    22    23   ar
    20    23    24   ar
    21    24    25   ar
    22    25    28    1
    23    28    29    1
    24    29    30    1
    25    30    31    1
    26    31    32    1
    27    32    33    1
    28    25    26   ar
    29    26    27   ar
    30     5     6   ar
    31    12     8   ar
    32     6     1   ar
    33    19    15    1
    34    27    22   ar
    35    33    28    1
    36    13    14    1
    37    20    21    1
@<TRIPOS>MOLECULE
*****
 33 37 0 0 0
SMALL
GASTEIGER

@<TRIPOS>ATOM
      1 C          62.6271   90.5517   11.0900 C.ar    1  UNL1        0.0929
      2 C          61.2344   91.1084   11.0711 C.ar    1  UNL1        0.0405
      3 C          60.1269   90.3364   10.4175 C.ar    1  UNL1        0.1034
      4 N          60.4120   89.0075    9.7829 N.ar    1  UNL1       -0.2120
      5 C          61.8047   88.4507    9.8017 C.ar    1  UNL1        0.2217
      6 N          62.9122   89.2228   10.4553 N.ar    1  UNL1       -0.2130
      7 C          63.4873   90.3835   14.2335 C.3     1  UNL1        0.0527
      8 C          64.1301   91.2464   13.1885 C.ar    1  UNL1        0.0687
      9 N          65.2811   92.1836   13.4049 N.ar    1  UNL1       -0.2286
     10 C          65.5972   92.8401   12.0937 C.ar    1  UNL1        0.1595
     11 S          64.6415   92.3087   11.0670 S.2     1  UNL1       -0.0506
     12 C          63.7347   91.3237   11.7436 C.ar    1  UNL1        0.0634
     13 N          66.6790   93.8506   11.8518 N.pl3   1  UNL1       -0.3146
     14 H          67.3359   94.0472   12.5583 H       1  UNL1        0.1486
     15 C          66.7601   94.5615   10.5334 C.3     1  UNL1        0.0708
     16 C          67.4962   94.0828    9.3174 C.3     1  UNL1        0.0195
     17 C          67.3103   95.1014    8.2321 C.3     1  UNL1        0.0017
     18 C          66.4592   96.2097    8.7774 C.3     1  UNL1        0.0017
     19 C          66.1191   95.8760   10.1997 C.3     1  UNL1        0.0195
     20 N          62.0898   87.1219    9.1671 N.pl3   1  UNL1       -0.2680
     21 H          62.1174   87.0406    8.1863 H       1  UNL1        0.1565
     22 C          62.3329   85.9169   10.0266 C.ar    1  UNL1        0.1344
     23 C          63.0381   84.7207    9.4592 C.ar    1  UNL1        0.0358
     24 C          63.2812   83.5157   10.3188 C.ar    1  UNL1        0.0190
     25 C          62.8192   83.5069   11.7458 C.ar    1  UNL1        0.0675
     26 C          62.1140   84.7029   12.3132 C.ar    1  UNL1        0.1147
     27 N          61.8708   85.9080   11.4537 N.ar    1  UNL1       -0.2277
     28 N          63.0623   82.3018   12.6054 N.pl3   1  UNL1       -0.3015
     29 C          64.3570   82.1601   13.3493 C.3     1  UNL1        0.1231
     30 C          64.6001   80.9551   14.2089 C.3     1  UNL1        0.1636
     31 O          63.5484   79.8918   14.3244 O.3     1  UNL1       -0.3501
     32 C          62.2537   80.0335   13.5804 C.3     1  UNL1        0.1636
     33 C          62.0106   81.2385   12.7209 C.3     1  UNL1        0.1231
@<TRIPOS>BOND
     1     7     8    1
     2     8     9   ar
     3     9    10   ar
     4    10    13    1
     5    13    15    1
     6    15    16    1
     7    16    17    1
     8    17    18    1
     9    18    19    1
    10    10    11   ar
    11    11    12   ar
    12    12     1    1
    13     1     2   ar
    14     2     3   ar
    15     3     4   ar
    16     4     5   ar
    17     5    20    1
    18    20    22    1
    19    22    23   ar
    20    23    24   ar
    21    24    25   ar
    22    25    28    1
    23    28    29    1
    24    29    30    1
    25    30    31    1
    26    31    32    1
    27    32    33    1
    28    25    26   ar
    29    26    27   ar
    30     5     6   ar
    31    12     8   ar
    32     6     1   ar
    33    19    15    1
    34    27    22   ar
    35    33    28    1
    36    13    14    1
    37    20    21    1
@<TRIPOS>MOLECULE
*****
 33 37 0 0 0
SMALL
GASTEIGER

@<TRIPOS>ATOM
      1 C          63.4327   86.0797   13.7397 C.ar    1  UNL1        0.0929
      2 C          63.5004   85.1945   14.9488 C.ar    1  UNL1        0.0405
      3 C          63.6402   85.7994   16.3142 C.ar    1  UNL1        0.1034
      4 N          63.7124   87.2894   16.4706 N.ar    1  UNL1       -0.2120
      5 C          63.6447   88.1746   15.2616 C.ar    1  UNL1        0.2217
      6 N          63.5049   87.5697   13.8962 N.ar    1  UNL1       -0.2130
      7 C          64.4649   83.1178   12.8388 C.3     1  UNL1        0.0527
      8 C          63.7673   84.1134   11.9601 C.ar    1  UNL1        0.0687
      9 N          63.4217   83.9224   10.5130 N.ar    1  UNL1       -0.2286
     10 C          62.7336   85.1658   10.0327 C.ar    1  UNL1        0.1595
     11 S          62.6540   86.1252   11.1830 S.2     1  UNL1       -0.0506
     12 C          63.2929   85.4748   12.3742 C.ar    1  UNL1        0.0634
     13 N          62.2161   85.4073    8.6457 N.pl3   1  UNL1       -0.3146
     14 H          62.6165   84.9332    7.8814 H       1  UNL1        0.1486
     15 C          61.0884   86.3711    8.4232 C.3     1  UNL1        0.0708
     16 C          61.0118   87.7746    8.9469 C.3     1  UNL1        0.0195
     17 C          59.7154   88.3714    8.4853 C.3     1  UNL1        0.0017
     18 C          58.9908   87.3368    7.6762 C.3     1  UNL1        0.0017
     19 C          59.8393   86.1005    7.6378 C.3     1  UNL1        0.0195
     20 N          63.7169   89.6647   15.4180 N.pl3   1  UNL1       -0.2680
     21 H          63.3052   90.0981   16.2002 H       1  UNL1        0.1565
     22 C          64.4165   90.4945   14.3827 C.ar    1  UNL1        0.1344
     23 C          65.8024   91.0063   14.6427 C.ar    1  UNL1        0.0358
     24 C          66.5019   91.8361   13.6073 C.ar    1  UNL1        0.0190
     25 C          65.8157   92.1541   12.3119 C.ar    1  UNL1        0.0675
     26 C          64.4299   91.6423   12.0519 C.ar    1  UNL1        0.1147
     27 N          63.7303   90.8125   13.0873 N.ar    1  UNL1       -0.2277
     28 N          66.5154   92.9840   11.2765 N.pl3   1  UNL1       -0.3015
     29 C          67.4602   92.3355   10.3087 C.3     1  UNL1        0.1231
     30 C          68.1598   93.1654    9.2734 C.3     1  UNL1        0.1636
     31 O          67.9145   94.6436    9.2059 O.3     1  UNL1       -0.3501
     32 C          66.9697   95.2921   10.1737 C.3     1  UNL1        0.1636
     33 C          66.2701   94.4622   11.2090 C.3     1  UNL1        0.1231
@<TRIPOS>BOND
     1     7     8    1
     2     8     9   ar
     3     9    10   ar
     4    10    13    1
     5    13    15    1
     6    15    16    1
     7    16    17    1
     8    17    18    1
     9    18    19    1
    10    10    11   ar
    11    11    12   ar
    12    12     1    1
    13     1     2   ar
    14     2     3   ar
    15     3     4   ar
    16     4     5   ar
    17     5    20    1
    18    20    22    1
    19    22    23   ar
    20    23    24   ar
    21    24    25   ar
    22    25    28    1
    23    28    29    1
    24    29    30    1
    25    30    31    1
    26    31    32    1
    27    32    33    1
    28    25    26   ar
    29    26    27   ar
    30     5     6   ar
    31    12     8   ar
    32     6     1   ar
    33    19    15    1
    34    27    22   ar
    35    33    28    1
    36    13    14    1
    37    20    21    1
@<TRIPOS>MOLECULE
*****
 33 37 0 0 0
SMALL
GASTEIGER

@<TRIPOS>ATOM
      1 C          64.5147   91.2585   12.7935 C.ar    1  UNL1        0.0929
      2 C          63.4164   91.1665   11.7761 C.ar    1  UNL1        0.0405
      3 C          62.5741   89.9283   11.6917 C.ar    1  UNL1        0.1034
      4 N          62.8300   88.7820   12.6248 N.ar    1  UNL1       -0.2120
      5 C          63.9284   88.8740   13.6422 C.ar    1  UNL1        0.2217
      6 N          64.7707   90.1123   13.7265 N.ar    1  UNL1       -0.2130
      7 C          66.1731   92.2756   15.4137 C.3     1  UNL1        0.0527
      8 C          66.1194   92.9642   14.0822 C.ar    1  UNL1        0.0687
      9 N          66.8185   94.2413   13.7213 N.ar    1  UNL1       -0.2286
     10 C          66.4884   94.5632   12.2939 C.ar    1  UNL1        0.1595
     11 S          65.5852   93.4850   11.7726 S.2     1  UNL1       -0.0506
     12 C          65.3572   92.4968   12.8778 C.ar    1  UNL1        0.0634
     13 N          66.9758   95.7541   11.5232 N.pl3   1  UNL1       -0.3146
     14 H          67.4626   96.4742   11.9856 H       1  UNL1        0.1486
     15 C          66.7217   95.8480   10.0478 C.3     1  UNL1        0.0708
     16 C          65.7023   96.7246    9.3828 C.3     1  UNL1        0.0195
     17 C          65.7929   96.5001    7.9025 C.3     1  UNL1        0.0017
     18 C          66.8684   95.4847    7.6526 C.3     1  UNL1        0.0017
     19 C          67.4424   95.0816    8.9785 C.3     1  UNL1        0.0195
     20 N          64.1844   87.7278   14.5752 N.pl3   1  UNL1       -0.2680
     21 H          64.5277   87.8984   15.4820 H       1  UNL1        0.1565
     22 C          63.9173   86.3216   14.1267 C.ar    1  UNL1        0.1344
     23 C          64.4160   85.1663   14.9434 C.ar    1  UNL1        0.0358
     24 C          64.1489   83.7601   14.4949 C.ar    1  UNL1        0.0190
     25 C          63.3833   83.5090   13.2297 C.ar    1  UNL1        0.0675
     26 C          62.8846   84.6642   12.4130 C.ar    1  UNL1        0.1147
     27 N          63.1517   86.0705   12.8615 N.ar    1  UNL1       -0.2277
     28 N          63.1162   82.1027   12.7812 N.pl3   1  UNL1       -0.3015
     29 C          63.2485   81.7399   11.3318 C.3     1  UNL1        0.1231
     30 C          62.9815   80.3336   10.8834 C.3     1  UNL1        0.1636
     31 O          62.5822   79.2903   11.8843 O.3     1  UNL1       -0.3501
     32 C          62.4499   79.6531   13.3337 C.3     1  UNL1        0.1636
     33 C          62.7169   81.0594   13.7821 C.3     1  UNL1        0.1231
@<TRIPOS>BOND
     1     7     8    1
     2     8     9   ar
     3     9    10   ar
     4    10    13    1
     5    13    15    1
     6    15    16    1
     7    16    17    1
     8    17    18    1
     9    18    19    1
    10    10    11   ar
    11    11    12   ar
    12    12     1    1
    13     1     2   ar
    14     2     3   ar
    15     3     4   ar
    16     4     5   ar
    17     5    20    1
    18    20    22    1
    19    22    23   ar
    20    23    24   ar
    21    24    25   ar
    22    25    28    1
    23    28    29    1
    24    29    30    1
    25    30    31    1
    26    31    32    1
    27    32    33    1
    28    25    26   ar
    29    26    27   ar
    30     5     6   ar
    31    12     8   ar
    32     6     1   ar
    33    19    15    1
    34    27    22   ar
    35    33    28    1
    36    13    14    1
    37    20    21    1
@<TRIPOS>MOLECULE
*****
 33 37 0 0 0
SMALL
GASTEIGER

@<TRIPOS>ATOM
      1 C          60.6161   88.1459    9.5311 C.ar    1  UNL1        0.0929
      2 C          60.8018   86.7142    9.1244 C.ar    1  UNL1        0.0405
      3 C          60.1651   86.2034    7.8660 C.ar    1  UNL1        0.1034
      4 N          59.3427   87.1244    7.0143 N.ar    1  UNL1       -0.2120
      5 C          59.1569   88.5562    7.4210 C.ar    1  UNL1        0.2217
      6 N          59.7937   89.0669    8.6794 N.ar    1  UNL1       -0.2130
      7 C          59.3812   90.4202   11.5192 C.3     1  UNL1        0.0527
      8 C          60.6852   89.7021   11.7034 C.ar    1  UNL1        0.0687
      9 N          61.6505   89.9033   12.8337 N.ar    1  UNL1       -0.2286
     10 C          62.8148   88.9823   12.6185 C.ar    1  UNL1        0.1595
     11 S          62.5690   88.2119   11.3552 S.2     1  UNL1       -0.0506
     12 C          61.2528   88.6568   10.7896 C.ar    1  UNL1        0.0634
     13 N          64.0142   88.8542   13.5101 N.pl3   1  UNL1       -0.3146
     14 H          64.5511   88.0291   13.4974 H       1  UNL1        0.1486
     15 C          64.3956   89.9833   14.4210 C.3     1  UNL1        0.0708
     16 C          63.7028   90.3591   15.6972 C.3     1  UNL1        0.0195
     17 C          64.4158   91.5428   16.2805 C.3     1  UNL1        0.0017
     18 C          65.5494   91.8987   15.3649 C.3     1  UNL1        0.0017
     19 C          65.5369   90.9348   14.2156 C.3     1  UNL1        0.0195
     20 N          58.3345   89.4772    6.5693 N.pl3   1  UNL1       -0.2680
     21 H          57.3533   89.4764    6.6491 H       1  UNL1        0.1565
     22 C          59.0071   90.3992    5.5960 C.ar    1  UNL1        0.1344
     23 C          60.4984   90.3643    5.4376 C.ar    1  UNL1        0.0358
     24 C          61.1710   91.2864    4.4643 C.ar    1  UNL1        0.0190
     25 C          60.3524   92.2434    3.6494 C.ar    1  UNL1        0.0675
     26 C          58.8612   92.2783    3.8078 C.ar    1  UNL1        0.1147
     27 N          58.1886   91.3562    4.7811 N.ar    1  UNL1       -0.2277
     28 N          61.0251   93.1655    2.6761 N.pl3   1  UNL1       -0.3015
     29 C          62.3771   92.8191    2.1264 C.3     1  UNL1        0.1231
     30 C          63.0497   93.7412    1.1532 C.3     1  UNL1        0.1636
     31 O          62.3703   95.0096    0.7295 O.3     1  UNL1       -0.3501
     32 C          61.0183   95.3560    1.2791 C.3     1  UNL1        0.1636
     33 C          60.3457   94.4339    2.2524 C.3     1  UNL1        0.1231
@<TRIPOS>BOND
     1     7     8    1
     2     8     9   ar
     3     9    10   ar
     4    10    13    1
     5    13    15    1
     6    15    16    1
     7    16    17    1
     8    17    18    1
     9    18    19    1
    10    10    11   ar
    11    11    12   ar
    12    12     1    1
    13     1     2   ar
    14     2     3   ar
    15     3     4   ar
    16     4     5   ar
    17     5    20    1
    18    20    22    1
    19    22    23   ar
    20    23    24   ar
    21    24    25   ar
    22    25    28    1
    23    28    29    1
    24    29    30    1
    25    30    31    1
    26    31    32    1
    27    32    33    1
    28    25    26   ar
    29    26    27   ar
    30     5     6   ar
    31    12     8   ar
    32     6     1   ar
    33    19    15    1
    34    27    22   ar
    35    33    28    1
    36    13    14    1
    37    20    21    1
