@<TRIPOS>MOLECULE
*****
 38 41 0 0 0
SMALL
GASTEIGER

@<TRIPOS>ATOM
      1 C          65.8582   93.1591   12.7066 C.ar    1  UNL1        0.0930
      2 C          66.4118   93.8308   13.9282 C.ar    1  UNL1        0.1067
      3 N          66.0604   92.9894   15.1193 N.ar    1  UNL1       -0.2252
      4 C          65.2895   91.7977   14.6337 C.ar    1  UNL1        0.1586
      5 N          64.6853   90.6306   15.3568 N.ar    1  UNL1       -0.3349
      6 C          63.9561   89.5684   14.5887 C.ar    1  UNL1        0.0945
      7 C          63.8312   89.6733   13.0976 C.ar    1  UNL1        0.1176
      8 N          64.4354   90.8404   12.3746 N.ar    1  UNL1       -0.2390
      9 C          65.1646   91.9026   13.1426 C.ar    1  UNL1        0.1210
     10 H          64.7673   90.5618   16.3354 H       1  UNL1        0.1675
     11 C          63.1020   88.6110   12.3295 C.ar    1  UNL1        0.1213
     12 N          63.2178   87.1310   12.5445 N.ar    1  UNL1       -0.1677
     13 N          62.3164   86.4476   11.5595 N.ar    1  UNL1       -0.2507
     14 C          61.6434   87.5052   10.7357 C.ar    1  UNL1        0.0816
     15 C          60.6512   87.4235    9.6137 C.ar    1  UNL1        0.0484
     16 C          60.1445   88.6788    8.9677 C.ar    1  UNL1        0.1416
     17 F          59.1523   88.5970    7.8456 F       1  UNL1       -0.2041
     18 C          60.6301   90.0159    9.4435 C.ar    1  UNL1        0.0298
     19 C          61.6223   90.0976   10.5655 C.ar    1  UNL1        0.0054
     20 C          62.1289   88.8423   11.2116 C.ar    1  UNL1        0.0383
     21 C          62.1220   84.9666   11.4223 C.3     1  UNL1        0.1300
     22 C          63.0845   84.0201   12.0763 C.3     1  UNL1        0.0582
     23 C          62.9567   83.7122   13.5388 C.3     1  UNL1        0.1417
     24 O          62.5720   84.7954   14.5025 O.3     1  UNL1       -0.3818
     25 H          62.4436   85.6270   14.0198 H       1  UNL1        0.2104
     26 C          63.2137   82.3211   14.0376 C.3     1  UNL1        0.1663
     27 O          62.1726   81.6122   14.8523 O.3     1  UNL1       -0.3795
     28 H          62.0582   82.0700   15.6998 H       1  UNL1        0.2105
     29 N          66.9416   94.7578   10.9686 N.am    1  UNL1       -0.3015
     30 C          65.9773   93.6565   11.2966 C.2     1  UNL1        0.2489
     31 O          65.1321   93.0529   10.2144 O.2     1  UNL1       -0.2700
     32 H          67.4964   95.1540   11.6789 H       1  UNL1        0.1497
     33 C          68.1005   94.2111    9.2781 C.3     1  UNL1        0.0222
     34 C          67.0607   95.2552    9.5585 C.3     1  UNL1        0.0841
     35 C          66.0209   96.2994    9.8391 C.3     1  UNL1        0.0222
     36 C          67.1798   95.7527    8.1485 C.3     1  UNL1        0.1549
     37 O          65.9448   96.0692    7.3580 O.3     1  UNL1       -0.3803
     38 H          65.4438   95.2537    7.2006 H       1  UNL1        0.2105
@<TRIPOS>BOND
     1    33    34    1
     2    34    35    1
     3    34    36    1
     4    36    37    1
     5    34    29    1
     6    29    30   am
     7    30    31    2
     8    30     1    1
     9     1     2   ar
    10     2     3   ar
    11     3     4   ar
    12     4     5   ar
    13     5     6   ar
    14     6     7   ar
    15     7    11    1
    16    11    12   ar
    17    12    13   ar
    18    13    21    1
    19    21    22    1
    20    22    23    1
    21    23    24    1
    22    23    26    1
    23    26    27    1
    24    13    14   ar
    25    14    15   ar
    26    15    16   ar
    27    16    17    1
    28    16    18   ar
    29    18    19   ar
    30    19    20   ar
    31     7     8   ar
    32     8     9   ar
    33     9     1   ar
    34     9     4    1
    35    20    11   ar
    36    20    14   ar
    37    37    38    1
    38    29    32    1
    39     5    10    1
    40    24    25    1
    41    27    28    1
@<TRIPOS>MOLECULE
*****
 38 41 0 0 0
SMALL
GASTEIGER

@<TRIPOS>ATOM
      1 C          64.1979   87.9114   14.2026 C.ar    1  UNL1        0.0930
      2 C          64.8442   88.8872   15.1408 C.ar    1  UNL1        0.1067
      3 N          64.5599   90.2714   14.6378 N.ar    1  UNL1       -0.2252
      4 C          63.7379   90.1512   13.3889 C.ar    1  UNL1        0.1586
      5 N          63.1643   91.1814   12.4618 N.ar    1  UNL1       -0.3349
      6 C          62.3669   90.7530   11.2658 C.ar    1  UNL1        0.0945
      7 C          62.1431   89.2944   10.9968 C.ar    1  UNL1        0.1176
      8 N          62.7168   88.2642   11.9239 N.ar    1  UNL1       -0.2390
      9 C          63.5142   88.6926   13.1199 C.ar    1  UNL1        0.1210
     10 H          63.3111   92.1388   12.6383 H       1  UNL1        0.1675
     11 C          61.3457   88.8660    9.8007 C.ar    1  UNL1        0.1213
     12 N          60.2605   89.6589    9.1345 N.ar    1  UNL1       -0.1677
     13 N          59.7375   88.8525    7.9829 N.ar    1  UNL1       -0.2507
     14 C          60.4995   87.5612    7.9373 C.ar    1  UNL1        0.0816
     15 C          60.4167   86.3789    7.0180 C.ar    1  UNL1        0.0484
     16 C          61.3278   85.2049    7.2221 C.ar    1  UNL1        0.1416
     17 F          61.2450   84.0225    6.3027 F       1  UNL1       -0.2041
     18 C          62.3217   85.2132    8.3456 C.ar    1  UNL1        0.0298
     19 C          62.4045   86.3956    9.2649 C.ar    1  UNL1        0.0054
     20 C          61.4934   87.5696    9.0608 C.ar    1  UNL1        0.0383
     21 C          58.6445   89.2649    7.0420 C.3     1  UNL1        0.1300
     22 C          58.9860   89.9245    5.7388 C.3     1  UNL1        0.0582
     23 C          58.2986   91.1965    5.3393 C.3     1  UNL1        0.1417
     24 O          59.0286   92.5037    5.4292 O.3     1  UNL1       -0.3818
     25 H          59.9269   92.3502    5.7616 H       1  UNL1        0.2104
     26 C          56.8812   91.1611    4.8498 C.3     1  UNL1        0.1663
     27 O          55.8407   90.4020    5.6189 O.3     1  UNL1       -0.3795
     28 H          56.0456   89.4543    5.5914 H       1  UNL1        0.2105
     29 N          63.0942   85.5958   13.7900 N.am    1  UNL1       -0.3015
     30 C          64.2297   86.4168   14.3256 C.2     1  UNL1        0.2489
     31 O          65.3969   85.7430   14.9841 O.2     1  UNL1       -0.2700
     32 H          62.3281   86.0380   13.3578 H       1  UNL1        0.1497
     33 C          63.7310   84.0015   12.5440 C.3     1  UNL1        0.0222
     34 C          63.1260   84.1012   13.9130 C.3     1  UNL1        0.0841
     35 C          62.5210   84.2010   15.2820 C.3     1  UNL1        0.0222
     36 C          63.1578   82.6067   14.0360 C.3     1  UNL1        0.1549
     37 O          62.2479   81.9144   15.0071 O.3     1  UNL1       -0.3803
     38 H          62.4967   82.1571   15.9126 H       1  UNL1        0.2105
@<TRIPOS>BOND
     1    33    34    1
     2    34    35    1
     3    34    36    1
     4    36    37    1
     5    34    29    1
     6    29    30   am
     7    30    31    2
     8    30     1    1
     9     1     2   ar
    10     2     3   ar
    11     3     4   ar
    12     4     5   ar
    13     5     6   ar
    14     6     7   ar
    15     7    11    1
    16    11    12   ar
    17    12    13   ar
    18    13    21    1
    19    21    22    1
    20    22    23    1
    21    23    24    1
    22    23    26    1
    23    26    27    1
    24    13    14   ar
    25    14    15   ar
    26    15    16   ar
    27    16    17    1
    28    16    18   ar
    29    18    19   ar
    30    19    20   ar
    31     7     8   ar
    32     8     9   ar
    33     9     1   ar
    34     9     4    1
    35    20    11   ar
    36    20    14   ar
    37    37    38    1
    38    29    32    1
    39     5    10    1
    40    24    25    1
    41    27    28    1
@<TRIPOS>MOLECULE
*****
 38 41 0 0 0
SMALL
GASTEIGER

@<TRIPOS>ATOM
      1 C          61.9776   86.7491   11.2341 C.ar    1  UNL1        0.0930
      2 C          60.8629   86.2538   10.3611 C.ar    1  UNL1        0.1067
      3 N          60.4069   87.3943    9.5000 N.ar    1  UNL1       -0.2252
      4 C          61.2398   88.5944    9.8409 C.ar    1  UNL1        0.1586
      5 N          61.2397   89.9987    9.3139 N.ar    1  UNL1       -0.3349
      6 C          62.2103   91.0043    9.8586 C.ar    1  UNL1        0.0945
      7 C          63.1810   90.6055   10.9304 C.ar    1  UNL1        0.1176
      8 N          63.1811   89.2011   11.4574 N.ar    1  UNL1       -0.2390
      9 C          62.2105   88.1956   10.9127 C.ar    1  UNL1        0.1210
     10 H          60.6025   90.2605    8.6105 H       1  UNL1        0.1675
     11 C          64.1516   91.6111   11.4751 C.ar    1  UNL1        0.1213
     12 N          64.7622   92.7497   10.7130 N.ar    1  UNL1       -0.1677
     13 N          65.6700   93.4970   11.6443 N.ar    1  UNL1       -0.2507
     14 C          65.6205   92.8202   12.9821 C.ar    1  UNL1        0.0816
     15 C          66.3086   93.1146   14.2820 C.ar    1  UNL1        0.0484
     16 C          66.0583   92.2437   15.4772 C.ar    1  UNL1        0.1416
     17 F          66.7465   92.5382   16.7772 F       1  UNL1       -0.2041
     18 C          65.1199   91.0781   15.3726 C.ar    1  UNL1        0.0298
     19 C          64.4318   90.7836   14.0727 C.ar    1  UNL1        0.0054
     20 C          64.6820   91.6547   12.8775 C.ar    1  UNL1        0.0383
     21 C          66.4844   94.7083   11.2987 C.3     1  UNL1        0.1300
     22 C          66.4034   95.2986    9.9221 C.3     1  UNL1        0.0582
     23 C          67.5384   95.1142    8.9590 C.3     1  UNL1        0.1417
     24 O          68.0230   96.2736    8.1399 O.3     1  UNL1       -0.3818
     25 H          67.4989   97.0615    8.3531 H       1  UNL1        0.2104
     26 C          68.1889   93.7703    8.8150 C.3     1  UNL1        0.1663
     27 O          69.2714   93.3551    9.7669 O.3     1  UNL1       -0.3795
     28 H          70.0467   93.9247    9.6433 H       1  UNL1        0.2105
     29 N          62.6093   84.4445   12.2539 N.am    1  UNL1       -0.3015
     30 C          62.7277   85.9399   12.2503 C.2     1  UNL1        0.2489
     31 O          63.5961   86.6259   13.2627 O.2     1  UNL1       -0.2700
     32 H          62.0393   83.9941   11.5894 H       1  UNL1        0.1497
     33 C          62.3339   83.9868   14.3069 C.3     1  UNL1        0.0222
     34 C          63.3594   83.6352   13.2701 C.3     1  UNL1        0.0841
     35 C          64.3848   83.2838   12.2333 C.3     1  UNL1        0.0222
     36 C          64.1094   82.8261   14.2862 C.3     1  UNL1        0.1549
     37 O          64.5908   83.4713   15.5519 O.3     1  UNL1       -0.3803
     38 H          65.2673   84.1335   15.3403 H       1  UNL1        0.2105
@<TRIPOS>BOND
     1    33    34    1
     2    34    35    1
     3    34    36    1
     4    36    37    1
     5    34    29    1
     6    29    30   am
     7    30    31    2
     8    30     1    1
     9     1     2   ar
    10     2     3   ar
    11     3     4   ar
    12     4     5   ar
    13     5     6   ar
    14     6     7   ar
    15     7    11    1
    16    11    12   ar
    17    12    13   ar
    18    13    21    1
    19    21    22    1
    20    22    23    1
    21    23    24    1
    22    23    26    1
    23    26    27    1
    24    13    14   ar
    25    14    15   ar
    26    15    16   ar
    27    16    17    1
    28    16    18   ar
    29    18    19   ar
    30    19    20   ar
    31     7     8   ar
    32     8     9   ar
    33     9     1   ar
    34     9     4    1
    35    20    11   ar
    36    20    14   ar
    37    37    38    1
    38    29    32    1
    39     5    10    1
    40    24    25    1
    41    27    28    1
@<TRIPOS>MOLECULE
*****
 38 41 0 0 0
SMALL
GASTEIGER

@<TRIPOS>ATOM
      1 C          61.9090   86.2403   10.8963 C.ar    1  UNL1        0.0930
      2 C          60.8312   85.9294    9.9004 C.ar    1  UNL1        0.1067
      3 N          60.3670   87.2236    9.3007 N.ar    1  UNL1       -0.2252
      4 C          61.1579   88.3343    9.9259 C.ar    1  UNL1        0.1586
      5 N          61.1334   89.8205    9.7246 N.ar    1  UNL1       -0.3349
      6 C          62.0619   90.6990   10.5095 C.ar    1  UNL1        0.0945
      7 C          63.0149   90.0913   11.4956 C.ar    1  UNL1        0.1176
      8 N          63.0394   88.6051   11.6969 N.ar    1  UNL1       -0.2390
      9 C          62.1109   87.7266   10.9120 C.ar    1  UNL1        0.1210
     10 H          60.5079   90.2193    9.0774 H       1  UNL1        0.1675
     11 C          63.9435   90.9699   12.2805 C.ar    1  UNL1        0.1213
     12 N          64.2853   90.8163   13.7329 N.ar    1  UNL1       -0.1677
     13 N          65.2463   91.9077   14.1009 N.ar    1  UNL1       -0.2507
     14 C          65.4983   92.7358   12.8757 C.ar    1  UNL1        0.0816
     15 C          66.3570   93.9428   12.6393 C.ar    1  UNL1        0.0484
     16 C          66.4105   94.5701   11.2779 C.ar    1  UNL1        0.1416
     17 F          67.2692   95.7771   11.0414 F       1  UNL1       -0.2041
     18 C          65.6053   93.9904   10.1528 C.ar    1  UNL1        0.0298
     19 C          64.7466   92.7835   10.3892 C.ar    1  UNL1        0.0054
     20 C          64.6931   92.1562   11.7507 C.ar    1  UNL1        0.0383
     21 C          65.8493   92.1318   15.4559 C.3     1  UNL1        0.1300
     22 C          67.2972   91.8198   15.6933 C.3     1  UNL1        0.0582
     23 C          68.3468   92.8429   15.3748 C.3     1  UNL1        0.1417
     24 O          68.3486   94.1626   16.0877 O.3     1  UNL1       -0.3818
     25 H          67.6107   94.1914   16.7166 H       1  UNL1        0.2104
     26 C          69.3947   92.5462   14.3433 C.3     1  UNL1        0.1663
     27 O          69.0641   91.6759   13.1671 O.3     1  UNL1       -0.3795
     28 H          68.8785   90.7746   13.4738 H       1  UNL1        0.2105
     29 N          62.5679   85.2989   13.2265 N.am    1  UNL1       -0.3015
     30 C          62.6541   85.2405   11.7300 C.2     1  UNL1        0.2489
     31 O          63.4854   84.1822   11.0675 O.2     1  UNL1       -0.2700
     32 H          62.0224   85.9935   13.6614 H       1  UNL1        0.1497
     33 C          62.2329   83.2880   13.8129 C.3     1  UNL1        0.0222
     34 C          63.3131   84.2991   14.0603 C.3     1  UNL1        0.0841
     35 C          64.3931   85.3102   14.3075 C.3     1  UNL1        0.0222
     36 C          64.0581   83.2993   14.8940 C.3     1  UNL1        0.1549
     37 O          63.7625   81.8355   14.7521 O.3     1  UNL1       -0.3803
     38 H          62.8583   81.6574   15.0546 H       1  UNL1        0.2105
@<TRIPOS>BOND
     1    33    34    1
     2    34    35    1
     3    34    36    1
     4    36    37    1
     5    34    29    1
     6    29    30   am
     7    30    31    2
     8    30     1    1
     9     1     2   ar
    10     2     3   ar
    11     3     4   ar
    12     4     5   ar
    13     5     6   ar
    14     6     7   ar
    15     7    11    1
    16    11    12   ar
    17    12    13   ar
    18    13    21    1
    19    21    22    1
    20    22    23    1
    21    23    24    1
    22    23    26    1
    23    26    27    1
    24    13    14   ar
    25    14    15   ar
    26    15    16   ar
    27    16    17    1
    28    16    18   ar
    29    18    19   ar
    30    19    20   ar
    31     7     8   ar
    32     8     9   ar
    33     9     1   ar
    34     9     4    1
    35    20    11   ar
    36    20    14   ar
    37    37    38    1
    38    29    32    1
    39     5    10    1
    40    24    25    1
    41    27    28    1
@<TRIPOS>MOLECULE
*****
 38 41 0 0 0
SMALL
GASTEIGER

@<TRIPOS>ATOM
      1 C          61.7853   85.9423    9.3319 C.ar    1  UNL1        0.0930
      2 C          60.8366   85.8718    8.1722 C.ar    1  UNL1        0.1067
      3 N          60.1952   87.2187    8.0155 N.ar    1  UNL1       -0.2252
      4 C          60.7475   88.1216    9.0784 C.ar    1  UNL1        0.1586
      5 N          60.4826   89.5601    9.4105 N.ar    1  UNL1       -0.3349
      6 C          61.2003   90.2098   10.5562 C.ar    1  UNL1        0.0945
      7 C          62.1831   89.4210   11.3698 C.ar    1  UNL1        0.1176
      8 N          62.4481   87.9824   11.0377 N.ar    1  UNL1       -0.2390
      9 C          61.7303   87.3328    9.8920 C.ar    1  UNL1        0.1210
     10 H          59.8376   90.0779    8.8765 H       1  UNL1        0.1675
     11 C          62.9009   90.0707   12.5156 C.ar    1  UNL1        0.1213
     12 N          62.6903   89.7731   13.9706 N.ar    1  UNL1       -0.1677
     13 N          63.6144   90.6505   14.7617 N.ar    1  UNL1       -0.2507
     14 C          64.3963   91.4905   13.7956 C.ar    1  UNL1        0.0816
     15 C          65.4528   92.5354   14.0006 C.ar    1  UNL1        0.0484
     16 C          66.0682   93.2218   12.8175 C.ar    1  UNL1        0.1416
     17 F          67.1248   94.2667   13.0225 F       1  UNL1       -0.2041
     18 C          65.6272   92.8635   11.4292 C.ar    1  UNL1        0.0298
     19 C          64.5707   91.8186   11.2243 C.ar    1  UNL1        0.0054
     20 C          63.9552   91.1321   12.4074 C.ar    1  UNL1        0.0383
     21 C          63.7356   90.6825   16.2565 C.3     1  UNL1        0.1300
     22 C          63.0590   89.6320   17.0864 C.3     1  UNL1        0.0582
     23 C          63.2257   88.1816   16.7419 C.3     1  UNL1        0.1417
     24 O          63.9649   87.7863   15.4980 O.3     1  UNL1       -0.3818
     25 H          64.2671   88.5831   15.0345 H       1  UNL1        0.2104
     26 C          62.6532   87.1266   17.6414 C.3     1  UNL1        0.1663
     27 O          61.4556   86.3366   17.2034 O.3     1  UNL1       -0.3795
     28 H          60.6877   86.9252   17.1343 H       1  UNL1        0.2105
     29 N          62.5398   84.3939   11.2770 N.am    1  UNL1       -0.3015
     30 C          62.6392   84.8195    9.8420 C.2     1  UNL1        0.2489
     31 O          63.5924   84.1223    8.9173 O.2     1  UNL1       -0.2700
     32 H          61.9142   84.8515   11.8840 H       1  UNL1        0.1497
     33 C          64.2450   84.2567   12.5314 C.3     1  UNL1        0.0222
     34 C          63.3937   83.2711   11.7871 C.3     1  UNL1        0.0841
     35 C          62.5424   82.2855   11.0428 C.3     1  UNL1        0.0222
     36 C          64.2476   82.1484   12.2972 C.3     1  UNL1        0.1549
     37 O          63.6419   81.0732   13.1501 O.3     1  UNL1       -0.3803
     38 H          63.3535   81.4542   13.9942 H       1  UNL1        0.2105
@<TRIPOS>BOND
     1    33    34    1
     2    34    35    1
     3    34    36    1
     4    36    37    1
     5    34    29    1
     6    29    30   am
     7    30    31    2
     8    30     1    1
     9     1     2   ar
    10     2     3   ar
    11     3     4   ar
    12     4     5   ar
    13     5     6   ar
    14     6     7   ar
    15     7    11    1
    16    11    12   ar
    17    12    13   ar
    18    13    21    1
    19    21    22    1
    20    22    23    1
    21    23    24    1
    22    23    26    1
    23    26    27    1
    24    13    14   ar
    25    14    15   ar
    26    15    16   ar
    27    16    17    1
    28    16    18   ar
    29    18    19   ar
    30    19    20   ar
    31     7     8   ar
    32     8     9   ar
    33     9     1   ar
    34     9     4    1
    35    20    11   ar
    36    20    14   ar
    37    37    38    1
    38    29    32    1
    39     5    10    1
    40    24    25    1
    41    27    28    1
@<TRIPOS>MOLECULE
*****
 38 41 0 0 0
SMALL
GASTEIGER

@<TRIPOS>ATOM
      1 C          63.1873   87.9789   16.4664 C.ar    1  UNL1        0.0930
      2 C          63.0063   87.9063   17.9537 C.ar    1  UNL1        0.1067
      3 N          62.7787   86.4705   18.3233 N.ar    1  UNL1       -0.2252
      4 C          62.8191   85.6557   17.0645 C.ar    1  UNL1        0.1586
      5 N          62.6585   84.1854   16.8150 N.ar    1  UNL1       -0.3349
      6 C          62.7504   83.6473   15.4179 C.ar    1  UNL1        0.0945
      7 C          63.0029   84.5796   14.2703 C.ar    1  UNL1        0.1176
      8 N          63.1635   86.0499   14.5197 N.ar    1  UNL1       -0.2390
      9 C          63.0716   86.5880   15.9169 C.ar    1  UNL1        0.1210
     10 H          62.4928   83.5735   17.5683 H       1  UNL1        0.1675
     11 C          63.0949   84.0415   12.8731 C.ar    1  UNL1        0.1213
     12 N          63.3082   84.8513   11.6286 N.ar    1  UNL1       -0.1677
     13 N          63.3348   83.9095   10.4615 N.ar    1  UNL1       -0.2507
     14 C          63.1379   82.5175   10.9847 C.ar    1  UNL1        0.0816
     15 C          63.0745   81.1862   10.2965 C.ar    1  UNL1        0.0484
     16 C          62.8628   79.9366   11.0986 C.ar    1  UNL1        0.1416
     17 F          62.7994   78.6052   10.4104 F       1  UNL1       -0.2041
     18 C          62.7145   80.0181   12.5891 C.ar    1  UNL1        0.0298
     19 C          62.7780   81.3494   13.2773 C.ar    1  UNL1        0.0054
     20 C          62.9896   82.5991   12.4751 C.ar    1  UNL1        0.0383
     21 C          63.5249   84.2923    9.0237 C.3     1  UNL1        0.1300
     22 C          62.9688   85.5884    8.5129 C.3     1  UNL1        0.0582
     23 C          61.5542   85.9740    8.8291 C.3     1  UNL1        0.1417
     24 O          61.1904   86.4216   10.2138 O.3     1  UNL1       -0.3818
     25 H          61.9799   86.4041   10.7771 H       1  UNL1        0.2104
     26 C          60.5033   85.9121    7.7606 C.3     1  UNL1        0.1663
     27 O          60.6071   84.8931    6.6646 O.3     1  UNL1       -0.3795
     28 H          61.3843   85.0853    6.1170 H       1  UNL1        0.2105
     29 N          64.0270   89.1262   14.2918 N.am    1  UNL1       -0.3015
     30 C          63.4396   89.2239   15.6687 C.2     1  UNL1        0.2489
     31 O          63.1047   90.5664   16.2476 O.2     1  UNL1       -0.2700
     32 H          64.2468   88.2451   13.9118 H       1  UNL1        0.1497
     33 C          65.4790   90.6719   14.3430 C.3     1  UNL1        0.0222
     34 C          64.2794   90.3712   13.4941 C.3     1  UNL1        0.0841
     35 C          63.0798   90.0705   12.6452 C.3     1  UNL1        0.0222
     36 C          64.5318   91.6161   12.6964 C.3     1  UNL1        0.1549
     37 O          65.3676   92.7201   13.2734 O.3     1  UNL1       -0.3803
     38 H          64.9106   93.1064   14.0369 H       1  UNL1        0.2105
@<TRIPOS>BOND
     1    33    34    1
     2    34    35    1
     3    34    36    1
     4    36    37    1
     5    34    29    1
     6    29    30   am
     7    30    31    2
     8    30     1    1
     9     1     2   ar
    10     2     3   ar
    11     3     4   ar
    12     4     5   ar
    13     5     6   ar
    14     6     7   ar
    15     7    11    1
    16    11    12   ar
    17    12    13   ar
    18    13    21    1
    19    21    22    1
    20    22    23    1
    21    23    24    1
    22    23    26    1
    23    26    27    1
    24    13    14   ar
    25    14    15   ar
    26    15    16   ar
    27    16    17    1
    28    16    18   ar
    29    18    19   ar
    30    19    20   ar
    31     7     8   ar
    32     8     9   ar
    33     9     1   ar
    34     9     4    1
    35    20    11   ar
    36    20    14   ar
    37    37    38    1
    38    29    32    1
    39     5    10    1
    40    24    25    1
    41    27    28    1
@<TRIPOS>MOLECULE
*****
 38 41 0 0 0
SMALL
GASTEIGER

@<TRIPOS>ATOM
      1 C          63.5948   90.8955   11.6688 C.ar    1  UNL1        0.0930
      2 C          63.2309   91.6787   10.4424 C.ar    1  UNL1        0.1067
      3 N          62.5566   90.7462    9.4802 N.ar    1  UNL1       -0.2252
      4 C          62.5039   89.3868   10.1119 C.ar    1  UNL1        0.1586
      5 N          61.9545   88.0768    9.6301 N.ar    1  UNL1       -0.3349
      6 C          62.0467   86.8591   10.5011 C.ar    1  UNL1        0.0945
      7 C          62.6884   86.9513   11.8538 C.ar    1  UNL1        0.1176
      8 N          63.2378   88.2613   12.3355 N.ar    1  UNL1       -0.2390
      9 C          63.1455   89.4790   11.4646 C.ar    1  UNL1        0.1210
     10 H          61.5333   88.0163    8.7423 H       1  UNL1        0.1675
     11 C          62.7806   85.7335   12.7247 C.ar    1  UNL1        0.1213
     12 N          62.8314   85.7235   14.2238 N.ar    1  UNL1       -0.1677
     13 N          62.9204   84.2958   14.6751 N.ar    1  UNL1       -0.2507
     14 C          62.9246   83.4234   13.4549 C.ar    1  UNL1        0.0816
     15 C          62.9960   81.9347   13.2856 C.ar    1  UNL1        0.0484
     16 C          62.9809   81.3346   11.9111 C.ar    1  UNL1        0.1416
     17 F          63.0522   79.8458   11.7418 F       1  UNL1       -0.2041
     18 C          62.8945   82.2231   10.7056 C.ar    1  UNL1        0.0298
     19 C          62.8231   83.7118   10.8749 C.ar    1  UNL1        0.0054
     20 C          62.8382   84.3120   12.2495 C.ar    1  UNL1        0.0383
     21 C          62.9926   83.8234   16.0970 C.3     1  UNL1        0.1300
     22 C          63.0531   84.8201   17.2163 C.3     1  UNL1        0.0582
     23 C          62.2678   86.0951   17.1284 C.3     1  UNL1        0.1417
     24 O          60.7963   86.0512   16.8407 O.3     1  UNL1       -0.3818
     25 H          60.5140   85.1287   16.7392 H       1  UNL1        0.2104
     26 C          62.9539   87.4139   17.3284 C.3     1  UNL1        0.1663
     27 O          63.2511   88.2912   16.1485 O.3     1  UNL1       -0.3795
     28 H          63.9019   87.8547   15.5767 H       1  UNL1        0.2105
     29 N          65.7058   91.9112   12.7925 N.am    1  UNL1       -0.3015
     30 C          64.2866   91.4342   12.8859 C.2     1  UNL1        0.2489
     31 O          63.5595   91.4958   14.1963 O.2     1  UNL1       -0.2700
     32 H          66.1831   91.8708   11.9323 H       1  UNL1        0.1497
     33 C          66.4559   91.0672   14.5882 C.3     1  UNL1        0.0222
     34 C          66.3976   92.4499   14.0095 C.3     1  UNL1        0.0841
     35 C          66.3392   93.8325   13.4308 C.3     1  UNL1        0.0222
     36 C          67.0894   92.9885   15.2265 C.3     1  UNL1        0.1549
     37 O          66.3335   93.1407   16.5132 O.3     1  UNL1       -0.3803
     38 H          65.6450   93.8155   16.4059 H       1  UNL1        0.2105
@<TRIPOS>BOND
     1    33    34    1
     2    34    35    1
     3    34    36    1
     4    36    37    1
     5    34    29    1
     6    29    30   am
     7    30    31    2
     8    30     1    1
     9     1     2   ar
    10     2     3   ar
    11     3     4   ar
    12     4     5   ar
    13     5     6   ar
    14     6     7   ar
    15     7    11    1
    16    11    12   ar
    17    12    13   ar
    18    13    21    1
    19    21    22    1
    20    22    23    1
    21    23    24    1
    22    23    26    1
    23    26    27    1
    24    13    14   ar
    25    14    15   ar
    26    15    16   ar
    27    16    17    1
    28    16    18   ar
    29    18    19   ar
    30    19    20   ar
    31     7     8   ar
    32     8     9   ar
    33     9     1   ar
    34     9     4    1
    35    20    11   ar
    36    20    14   ar
    37    37    38    1
    38    29    32    1
    39     5    10    1
    40    24    25    1
    41    27    28    1
@<TRIPOS>MOLECULE
*****
 38 41 0 0 0
SMALL
GASTEIGER

@<TRIPOS>ATOM
      1 C          63.7417   83.1052   13.4183 C.ar    1  UNL1        0.0930
      2 C          64.1969   81.7089   13.1133 C.ar    1  UNL1        0.1067
      3 N          64.1667   81.5264   11.6247 N.ar    1  UNL1       -0.2252
      4 C          63.6930   82.8099   11.0098 C.ar    1  UNL1        0.1586
      5 N          63.4668   83.2162    9.5837 N.ar    1  UNL1       -0.3349
      6 C          62.9780   84.5982    9.2662 C.ar    1  UNL1        0.0945
      7 C          62.7153   85.5740   10.3747 C.ar    1  UNL1        0.1176
      8 N          62.9414   85.1677   11.8008 N.ar    1  UNL1       -0.2390
      9 C          63.4303   83.7857   12.1183 C.ar    1  UNL1        0.1210
     10 H          63.6392   82.5757    8.8562 H       1  UNL1        0.1675
     11 C          62.2264   86.9562   10.0571 C.ar    1  UNL1        0.1213
     12 N          62.7535   88.2336   10.6406 N.ar    1  UNL1       -0.1677
     13 N          61.9776   89.3704   10.0444 N.ar    1  UNL1       -0.2507
     14 C          60.9709   88.7956    9.0924 C.ar    1  UNL1        0.0816
     15 C          59.9340   89.4380    8.2194 C.ar    1  UNL1        0.0484
     16 C          59.0511   88.5885    7.3543 C.ar    1  UNL1        0.1416
     17 F          58.0142   89.2310    6.4812 F       1  UNL1       -0.2041
     18 C          59.2049   87.0964    7.3621 C.ar    1  UNL1        0.0298
     19 C          60.2417   86.4539    8.2351 C.ar    1  UNL1        0.0054
     20 C          61.1247   87.3035    9.1003 C.ar    1  UNL1        0.0383
     21 C          62.1738   90.8264   10.3470 C.3     1  UNL1        0.1300
     22 C          63.5527   91.3613   10.5969 C.3     1  UNL1        0.0582
     23 C          64.0473   91.5328   12.0026 C.3     1  UNL1        0.1417
     24 O          65.1607   92.4949   12.2937 O.3     1  UNL1       -0.3818
     25 H          65.4444   92.9202   11.4694 H       1  UNL1        0.2104
     26 C          63.4285   90.7422   13.1170 C.3     1  UNL1        0.1663
     27 O          63.3875   91.3086   14.5055 O.3     1  UNL1       -0.3795
     28 H          64.2913   91.3915   14.8477 H       1  UNL1        0.2105
     29 N          63.0564   85.0957   14.9411 N.am    1  UNL1       -0.3015
     30 C          63.6194   83.7142   14.7837 C.2     1  UNL1        0.2489
     31 O          64.0600   82.9418   15.9916 O.2     1  UNL1       -0.2700
     32 H          62.7672   85.6026   14.1483 H       1  UNL1        0.1497
     33 C          64.2446   86.4076   16.1102 C.3     1  UNL1        0.0222
     34 C          62.9342   85.7047   16.3064 C.3     1  UNL1        0.0841
     35 C          61.6237   85.0016   16.5026 C.3     1  UNL1        0.0222
     36 C          62.8119   86.3136   17.6717 C.3     1  UNL1        0.1549
     37 O          63.0272   87.7864   17.8581 O.3     1  UNL1       -0.3803
     38 H          63.9524   88.0049   17.6652 H       1  UNL1        0.2105
@<TRIPOS>BOND
     1    33    34    1
     2    34    35    1
     3    34    36    1
     4    36    37    1
     5    34    29    1
     6    29    30   am
     7    30    31    2
     8    30     1    1
     9     1     2   ar
    10     2     3   ar
    11     3     4   ar
    12     4     5   ar
    13     5     6   ar
    14     6     7   ar
    15     7    11    1
    16    11    12   ar
    17    12    13   ar
    18    13    21    1
    19    21    22    1
    20    22    23    1
    21    23    24    1
    22    23    26    1
    23    26    27    1
    24    13    14   ar
    25    14    15   ar
    26    15    16   ar
    27    16    17    1
    28    16    18   ar
    29    18    19   ar
    30    19    20   ar
    31     7     8   ar
    32     8     9   ar
    33     9     1   ar
    34     9     4    1
    35    20    11   ar
    36    20    14   ar
    37    37    38    1
    38    29    32    1
    39     5    10    1
    40    24    25    1
    41    27    28    1
@<TRIPOS>MOLECULE
*****
 38 41 0 0 0
SMALL
GASTEIGER

@<TRIPOS>ATOM
      1 C          61.7611   86.3775   10.3117 C.ar    1  UNL1        0.0930
      2 C          60.6269   86.1419    9.3589 C.ar    1  UNL1        0.1067
      3 N          60.1293   87.4774    8.8914 N.ar    1  UNL1       -0.2252
      4 C          60.9559   88.5385    9.5552 C.ar    1  UNL1        0.1586
      5 N          60.9206   90.0358    9.4738 N.ar    1  UNL1       -0.3349
      6 C          61.8939   90.8534   10.2702 C.ar    1  UNL1        0.0945
      7 C          62.9025   90.1736   11.1481 C.ar    1  UNL1        0.1176
      8 N          62.9378   88.6762   11.2295 N.ar    1  UNL1       -0.2390
      9 C          61.9645   87.8587   10.4331 C.ar    1  UNL1        0.1210
     10 H          60.2587   90.4820    8.8976 H       1  UNL1        0.1675
     11 C          63.8758   90.9912   11.9445 C.ar    1  UNL1        0.1213
     12 N          64.2580   90.7590   13.3763 N.ar    1  UNL1       -0.1677
     13 N          65.2561   91.8088   13.7657 N.ar    1  UNL1       -0.2507
     14 C          65.4908   92.6898   12.5745 C.ar    1  UNL1        0.0816
     15 C          66.3711   93.8869   12.3694 C.ar    1  UNL1        0.0484
     16 C          66.3983   94.5786   11.0388 C.ar    1  UNL1        0.1416
     17 F          67.2786   95.7757   10.8336 F       1  UNL1       -0.2041
     18 C          65.5451   94.0733    9.9131 C.ar    1  UNL1        0.0298
     19 C          64.6649   92.8762   10.1183 C.ar    1  UNL1        0.0054
     20 C          64.6377   92.1845   11.4490 C.ar    1  UNL1        0.0383
     21 C          65.9056   91.9524   15.1102 C.3     1  UNL1        0.1300
     22 C          65.3387   91.2323   16.2977 C.3     1  UNL1        0.0582
     23 C          63.8588   91.2386   16.5423 C.3     1  UNL1        0.1417
     24 O          63.1561   92.5259   16.8571 O.3     1  UNL1       -0.3818
     25 H          63.7991   93.2521   16.8636 H       1  UNL1        0.2104
     26 C          63.0816   89.9575   16.4721 C.3     1  UNL1        0.1663
     27 O          63.6218   88.7942   15.6943 O.3     1  UNL1       -0.3795
     28 H          63.6480   89.0200   14.7513 H       1  UNL1        0.2105
     29 N          62.4260   85.1530   12.5047 N.am    1  UNL1       -0.3015
     30 C          62.5530   85.3180   11.0191 C.2     1  UNL1        0.2489
     31 O          63.4718   84.4234   10.2411 O.2     1  UNL1       -0.2700
     32 H          61.8230   85.7402   13.0154 H       1  UNL1        0.1497
     33 C          64.0272   85.1552   13.8961 C.3     1  UNL1        0.0222
     34 C          63.2179   84.0935   13.2120 C.3     1  UNL1        0.0841
     35 C          62.4086   83.0319   12.5279 C.3     1  UNL1        0.0222
     36 C          64.0098   83.0341   13.9194 C.3     1  UNL1        0.1549
     37 O          63.9338   81.6083   13.4594 O.3     1  UNL1       -0.3803
     38 H          63.0378   81.2678   13.6083 H       1  UNL1        0.2105
@<TRIPOS>BOND
     1    33    34    1
     2    34    35    1
     3    34    36    1
     4    36    37    1
     5    34    29    1
     6    29    30   am
     7    30    31    2
     8    30     1    1
     9     1     2   ar
    10     2     3   ar
    11     3     4   ar
    12     4     5   ar
    13     5     6   ar
    14     6     7   ar
    15     7    11    1
    16    11    12   ar
    17    12    13   ar
    18    13    21    1
    19    21    22    1
    20    22    23    1
    21    23    24    1
    22    23    26    1
    23    26    27    1
    24    13    14   ar
    25    14    15   ar
    26    15    16   ar
    27    16    17    1
    28    16    18   ar
    29    18    19   ar
    30    19    20   ar
    31     7     8   ar
    32     8     9   ar
    33     9     1   ar
    34     9     4    1
    35    20    11   ar
    36    20    14   ar
    37    37    38    1
    38    29    32    1
    39     5    10    1
    40    24    25    1
    41    27    28    1
