@<TRIPOS>MOLECULE
*****
 14 15 0 0 0
SMALL
GASTEIGER

@<TRIPOS>ATOM
      1 C          60.6545   87.7466   10.7942 C.ar    1  UNL1        0.1334
      2 C          61.1914   87.5613    9.4058 C.ar    1  UNL1        0.0370
      3 C          62.0676   86.3438    9.4064 C.ar    1  UNL1        0.0403
      4 C          62.0723   85.7767   10.7951 C.ar    1  UNL1        0.1464
      5 O          61.1989   86.6436   11.6527 O.2     1  UNL1       -0.4568
      6 C          62.8192   84.5567   11.2467 C.ar    1  UNL1        0.0537
      7 C          63.6083   83.7515   10.2574 C.ar    1  UNL1        0.0062
      8 C          64.3552   82.5316   10.7090 C.ar    1  UNL1        0.0208
      9 C          64.3129   82.1170   12.1500 C.ar    1  UNL1        0.0989
     10 N          63.5238   82.9222   13.1393 N.ar    1  UNL1       -0.2422
     11 C          62.7769   84.1421   12.6876 C.ar    1  UNL1        0.1019
     12 S          60.0652   90.2729   10.9374 S.3     1  UNL1       -0.1600
     13 C          59.7347   88.8424   11.2449 C.3     1  UNL1        0.1178
     14 H          59.0941   91.0809   11.4411 H       1  UNL1        0.1027
@<TRIPOS>BOND
     1    12    13    1
     2    13     1    1
     3     1     2   ar
     4     2     3   ar
     5     3     4   ar
     6     4     6    1
     7     6     7   ar
     8     7     8   ar
     9     8     9   ar
    10     9    10   ar
    11    10    11   ar
    12     4     5   ar
    13     5     1   ar
    14    11     6   ar
    15    12    14    1
@<TRIPOS>MOLECULE
*****
 14 15 0 0 0
SMALL
GASTEIGER

@<TRIPOS>ATOM
      1 C          62.5499   87.6393   11.5193 C.ar    1  UNL1        0.1334
      2 C          61.9454   86.9825   10.3137 C.ar    1  UNL1        0.0370
      3 C          61.9564   85.4997   10.5394 C.ar    1  UNL1        0.0403
      4 C          62.5676   85.2399   11.8843 C.ar    1  UNL1        0.1464
      5 O          62.9344   86.5623   12.4899 O.2     1  UNL1       -0.4568
      6 C          62.7755   83.8941   12.5133 C.ar    1  UNL1        0.0537
      7 C          62.7540   82.6579   11.6639 C.ar    1  UNL1        0.0062
      8 C          62.9619   81.3121   12.2929 C.ar    1  UNL1        0.0208
      9 C          63.1914   81.2025   13.7712 C.ar    1  UNL1        0.0989
     10 N          63.2129   82.4387   14.6205 N.ar    1  UNL1       -0.2422
     11 C          63.0050   83.7844   13.9916 C.ar    1  UNL1        0.1019
     12 S          63.4517   89.6214   12.9364 S.3     1  UNL1       -0.1600
     13 C          62.7370   89.1141   11.7190 C.3     1  UNL1        0.1178
     14 H          63.4996   90.9801   12.9007 H       1  UNL1        0.1027
@<TRIPOS>BOND
     1    12    13    1
     2    13     1    1
     3     1     2   ar
     4     2     3   ar
     5     3     4   ar
     6     4     6    1
     7     6     7   ar
     8     7     8   ar
     9     8     9   ar
    10     9    10   ar
    11    10    11   ar
    12     4     5   ar
    13     5     1   ar
    14    11     6   ar
    15    12    14    1
@<TRIPOS>MOLECULE
*****
 14 15 0 0 0
SMALL
GASTEIGER

@<TRIPOS>ATOM
      1 C          61.1573   86.4507    9.3235 C.ar    1  UNL1        0.1334
      2 C          62.2891   85.8526    8.5416 C.ar    1  UNL1        0.0370
      3 C          63.0540   84.9423    9.4561 C.ar    1  UNL1        0.0403
      4 C          62.3950   84.9778   10.8031 C.ar    1  UNL1        0.1464
      5 O          61.2227   85.9101   10.7212 O.2     1  UNL1       -0.4568
      6 C          62.8316   84.2150   12.0187 C.ar    1  UNL1        0.0537
      7 C          62.7733   82.7162   12.0245 C.ar    1  UNL1        0.0062
      8 C          63.2099   81.9534   13.2400 C.ar    1  UNL1        0.0208
      9 C          63.7048   82.6895   14.4497 C.ar    1  UNL1        0.0989
     10 N          63.7632   84.1883   14.4438 N.ar    1  UNL1       -0.2422
     11 C          63.3266   84.9511   13.2283 C.ar    1  UNL1        0.1019
     12 S          59.1116   86.9636    7.8062 S.3     1  UNL1       -0.1600
     13 C          60.1388   87.4194    8.7997 C.3     1  UNL1        0.1178
     14 H          58.3028   88.0069    7.4793 H       1  UNL1        0.1027
@<TRIPOS>BOND
     1    12    13    1
     2    13     1    1
     3     1     2   ar
     4     2     3   ar
     5     3     4   ar
     6     4     6    1
     7     6     7   ar
     8     7     8   ar
     9     8     9   ar
    10     9    10   ar
    11    10    11   ar
    12     4     5   ar
    13     5     1   ar
    14    11     6   ar
    15    12    14    1
@<TRIPOS>MOLECULE
*****
 14 15 0 0 0
SMALL
GASTEIGER

@<TRIPOS>ATOM
      1 C          64.6456   91.0390   13.8411 C.ar    1  UNL1        0.1334
      2 C          65.9574   91.1693   14.5568 C.ar    1  UNL1        0.0370
      3 C          66.8802   91.9740   13.6902 C.ar    1  UNL1        0.0403
      4 C          66.1386   92.3410   12.4390 C.ar    1  UNL1        0.1464
      5 O          64.7576   91.7631   12.5323 O.2     1  UNL1       -0.4568
      6 C          66.6827   93.1448   11.2952 C.ar    1  UNL1        0.0537
      7 C          67.5266   92.4819   10.2472 C.ar    1  UNL1        0.0062
      8 C          68.0706   93.2857    9.1036 C.ar    1  UNL1        0.0208
      9 C          67.7707   94.7523    9.0080 C.ar    1  UNL1        0.0989
     10 N          66.9268   95.4151   10.0560 N.ar    1  UNL1       -0.2422
     11 C          66.3828   94.6114   11.1996 C.ar    1  UNL1        0.1019
     12 S          63.4113   89.7750   15.7461 S.3     1  UNL1       -0.1600
     13 C          63.4343   90.3121   14.3458 C.3     1  UNL1        0.1178
     14 H          62.2202   89.1603   15.9763 H       1  UNL1        0.1027
@<TRIPOS>BOND
     1    12    13    1
     2    13     1    1
     3     1     2   ar
     4     2     3   ar
     5     3     4   ar
     6     4     6    1
     7     6     7   ar
     8     7     8   ar
     9     8     9   ar
    10     9    10   ar
    11    10    11   ar
    12     4     5   ar
    13     5     1   ar
    14    11     6   ar
    15    12    14    1
@<TRIPOS>MOLECULE
*****
 14 15 0 0 0
SMALL
GASTEIGER

@<TRIPOS>ATOM
      1 C          60.9519   86.4816    9.6517 C.ar    1  UNL1        0.1334
      2 C          62.0447   85.8363    8.8521 C.ar    1  UNL1        0.0370
      3 C          62.9091   85.0536    9.7956 C.ar    1  UNL1        0.0403
      4 C          62.3504   85.2152   11.1783 C.ar    1  UNL1        0.1464
      5 O          61.1409   86.0977   11.0894 O.2     1  UNL1       -0.4568
      6 C          62.9043   84.6018   12.4302 C.ar    1  UNL1        0.0537
      7 C          63.6360   85.4552   13.4233 C.ar    1  UNL1        0.0062
      8 C          64.1897   84.8418   14.6751 C.ar    1  UNL1        0.0208
      9 C          64.0118   83.3750   14.9338 C.ar    1  UNL1        0.0989
     10 N          63.2801   82.5216   13.9407 N.ar    1  UNL1       -0.2422
     11 C          62.7263   83.1350   12.6889 C.ar    1  UNL1        0.1019
     12 S          59.1481   86.9714    7.8471 S.3     1  UNL1       -0.1600
     13 C          59.8615   87.3572    9.1089 C.3     1  UNL1        0.1178
     14 H          58.2084   87.9093    7.5528 H       1  UNL1        0.1027
@<TRIPOS>BOND
     1    12    13    1
     2    13     1    1
     3     1     2   ar
     4     2     3   ar
     5     3     4   ar
     6     4     6    1
     7     6     7   ar
     8     7     8   ar
     9     8     9   ar
    10     9    10   ar
    11    10    11   ar
    12     4     5   ar
    13     5     1   ar
    14    11     6   ar
    15    12    14    1
@<TRIPOS>MOLECULE
*****
 14 15 0 0 0
SMALL
GASTEIGER

@<TRIPOS>ATOM
      1 C          63.4854   89.7144   12.6775 C.ar    1  UNL1        0.1334
      2 C          63.5304   90.8461   11.6939 C.ar    1  UNL1        0.0370
      3 C          62.7910   90.4182   10.4609 C.ar    1  UNL1        0.0403
      4 C          62.2891   89.0221   10.6824 C.ar    1  UNL1        0.1464
      5 O          62.7182   88.5871   12.0523 O.2     1  UNL1       -0.4568
      6 C          61.4970   88.2045    9.7055 C.ar    1  UNL1        0.0537
      7 C          61.9586   86.8270    9.3325 C.ar    1  UNL1        0.0062
      8 C          61.1666   86.0095    8.3556 C.ar    1  UNL1        0.0208
      9 C          59.9129   86.5696    7.7518 C.ar    1  UNL1        0.0989
     10 N          59.4513   87.9471    8.1248 N.ar    1  UNL1       -0.2422
     11 C          60.2434   88.7646    9.1016 C.ar    1  UNL1        0.1019
     12 S          65.0466   90.8031   14.4459 S.3     1  UNL1       -0.1600
     13 C          64.0997   89.7106   14.0459 C.3     1  UNL1        0.1178
     14 H          65.4718   90.5904   15.7201 H       1  UNL1        0.1027
@<TRIPOS>BOND
     1    12    13    1
     2    13     1    1
     3     1     2   ar
     4     2     3   ar
     5     3     4   ar
     6     4     6    1
     7     6     7   ar
     8     7     8   ar
     9     8     9   ar
    10     9    10   ar
    11    10    11   ar
    12     4     5   ar
    13     5     1   ar
    14    11     6   ar
    15    12    14    1
@<TRIPOS>MOLECULE
*****
 14 15 0 0 0
SMALL
GASTEIGER

@<TRIPOS>ATOM
      1 C          63.6726   88.1886   13.3014 C.ar    1  UNL1        0.1334
      2 C          64.3864   88.0294   14.6111 C.ar    1  UNL1        0.0370
      3 C          64.4867   86.5627   14.9090 C.ar    1  UNL1        0.0403
      4 C          63.8349   85.8154   13.7835 C.ar    1  UNL1        0.1464
      5 O          63.3318   86.8203   12.7900 O.2     1  UNL1       -0.4568
      6 C          63.7084   84.3249   13.6713 C.ar    1  UNL1        0.0537
      7 C          64.2254   83.6180   12.4535 C.ar    1  UNL1        0.0062
      8 C          64.0989   82.1276   12.3413 C.ar    1  UNL1        0.0208
      9 C          63.4555   81.3441   13.4469 C.ar    1  UNL1        0.0989
     10 N          62.9386   82.0511   14.6646 N.ar    1  UNL1       -0.2422
     11 C          63.0650   83.5415   14.7768 C.ar    1  UNL1        0.1019
     12 S          62.5131   89.4996   11.3813 S.3     1  UNL1       -0.1600
     13 C          63.3554   89.4880   12.6225 C.3     1  UNL1        0.1178
     14 H          62.3611   90.7799   10.9486 H       1  UNL1        0.1027
@<TRIPOS>BOND
     1    12    13    1
     2    13     1    1
     3     1     2   ar
     4     2     3   ar
     5     3     4   ar
     6     4     6    1
     7     6     7   ar
     8     7     8   ar
     9     8     9   ar
    10     9    10   ar
    11    10    11   ar
    12     4     5   ar
    13     5     1   ar
    14    11     6   ar
    15    12    14    1
@<TRIPOS>MOLECULE
*****
 14 15 0 0 0
SMALL
GASTEIGER

@<TRIPOS>ATOM
      1 C          63.3058   85.1991   12.9047 C.ar    1  UNL1        0.1334
      2 C          63.2991   84.0996   11.8843 C.ar    1  UNL1        0.0370
      3 C          62.5591   84.5928   10.6764 C.ar    1  UNL1        0.0403
      4 C          62.1085   85.9971   10.9501 C.ar    1  UNL1        0.1464
      5 O          62.5699   86.3718   12.3273 O.2     1  UNL1       -0.4568
      6 C          61.3326   86.8729   10.0115 C.ar    1  UNL1        0.0537
      7 C          60.5476   86.2599    8.8899 C.ar    1  UNL1        0.0062
      8 C          59.7718   87.1357    7.9513 C.ar    1  UNL1        0.0208
      9 C          59.7809   88.6245    8.1343 C.ar    1  UNL1        0.0989
     10 N          60.5659   89.2375    9.2559 N.ar    1  UNL1       -0.2422
     11 C          61.3418   88.3617   10.1945 C.ar    1  UNL1        0.1019
     12 S          63.9483   83.8457   15.0273 S.3     1  UNL1       -0.1600
     13 C          63.9374   85.1368   14.2638 C.3     1  UNL1        0.1178
     14 H          64.5697   84.0313   16.2228 H       1  UNL1        0.1027
@<TRIPOS>BOND
     1    12    13    1
     2    13     1    1
     3     1     2   ar
     4     2     3   ar
     5     3     4   ar
     6     4     6    1
     7     6     7   ar
     8     7     8   ar
     9     8     9   ar
    10     9    10   ar
    11    10    11   ar
    12     4     5   ar
    13     5     1   ar
    14    11     6   ar
    15    12    14    1
@<TRIPOS>MOLECULE
*****
 14 15 0 0 0
SMALL
GASTEIGER

@<TRIPOS>ATOM
      1 C          63.1684   90.6064   11.9220 C.ar    1  UNL1        0.1334
      2 C          63.7593   91.5050   10.8763 C.ar    1  UNL1        0.0370
      3 C          64.9818   92.1512   11.4574 C.ar    1  UNL1        0.0403
      4 C          65.1466   91.6520   12.8623 C.ar    1  UNL1        0.1464
      5 O          64.0259   90.6973   13.1495 O.2     1  UNL1       -0.4568
      6 C          66.2402   92.0396   13.8131 C.ar    1  UNL1        0.0537
      7 C          65.9086   92.3998   15.2309 C.ar    1  UNL1        0.0062
      8 C          67.0021   92.7873   16.1816 C.ar    1  UNL1        0.0208
      9 C          68.4273   92.8146   15.7146 C.ar    1  UNL1        0.0989
     10 N          68.7589   92.4544   14.2968 N.ar    1  UNL1       -0.2422
     11 C          67.6653   92.0669   13.3460 C.ar    1  UNL1        0.1019
     12 S          61.9309   88.6125   10.8071 S.3     1  UNL1       -0.1600
     13 C          61.9365   89.7648   11.7675 C.3     1  UNL1        0.1178
     14 H          60.7160   88.0022   10.8383 H       1  UNL1        0.1027
@<TRIPOS>BOND
     1    12    13    1
     2    13     1    1
     3     1     2   ar
     4     2     3   ar
     5     3     4   ar
     6     4     6    1
     7     6     7   ar
     8     7     8   ar
     9     8     9   ar
    10     9    10   ar
    11    10    11   ar
    12     4     5   ar
    13     5     1   ar
    14    11     6   ar
    15    12    14    1
