@<TRIPOS>MOLECULE
*****
 39 43 0 0 0
SMALL
GASTEIGER

@<TRIPOS>ATOM
      1 C          62.9796   86.4365   13.1506 C.ar    1  UNL1        0.0502
      2 C          63.7924   86.8838   14.3292 C.ar    1  UNL1        0.0143
      3 C          64.3898   88.2595   14.3496 C.ar    1  UNL1       -0.0030
      4 C          64.1744   89.1879   13.1913 C.ar    1  UNL1       -0.0223
      5 C          63.3617   88.7406   12.0127 C.ar    1  UNL1       -0.0034
      6 C          62.7643   87.3649   11.9923 C.ar    1  UNL1        0.0089
      7 C          64.7719   90.5637   13.2118 C.3     1  UNL1        0.0257
      8 C          64.4776   91.5258   12.0993 C.3     1  UNL1        0.0259
      9 C          65.0750   92.9016   12.1197 C.3     1  UNL1        0.0937
     10 N          65.9668   93.3152   13.2527 N.am    1  UNL1       -0.2792
     11 C          66.5642   94.6909   13.2732 C.2     1  UNL1        0.2317
     12 O          67.4560   95.1045   14.4062 O.2     1  UNL1       -0.2744
     13 C          66.2611   92.3530   14.3653 C.3     1  UNL1        0.0937
     14 C          65.6636   90.9773   14.3448 C.3     1  UNL1        0.0259
     15 C          66.2699   95.6529   12.1607 C.3     1  UNL1        0.1308
     16 C          66.7022   95.3348   10.7599 C.ar    1  UNL1        0.0682
     17 C          66.2722   96.2151    9.6241 C.ar    1  UNL1        0.0152
     18 C          66.7045   95.8969    8.2235 C.ar    1  UNL1        0.0028
     19 C          67.5667   94.6983    7.9586 C.ar    1  UNL1        0.0207
     20 C          67.9967   93.8180    9.0945 C.ar    1  UNL1        0.0985
     21 N          67.5644   94.1362   10.4951 N.ar    1  UNL1       -0.2477
     22 C          61.9515   86.9176   10.8135 C.2     1  UNL1       -0.0253
     23 C          62.5302   85.9448    9.8292 C.2     1  UNL1       -0.0303
     24 C          61.7175   85.4975    8.6505 C.3     1  UNL1        0.0257
     25 C          60.3260   86.0229    8.4561 C.3     1  UNL1        0.0050
     26 C          59.7472   86.9956    9.4404 C.3     1  UNL1        0.0050
     27 C          60.5600   87.4430   10.6192 C.3     1  UNL1        0.0261
     28 C          63.2205   83.8734   13.5009 C.2     1  UNL1        0.2837
     29 O          64.6564   84.0619   13.8920 O.2     1  UNL1       -0.2665
     30 N          62.3822   85.0607   13.1301 N.am    1  UNL1       -0.2779
     31 H          61.4398   84.9370   12.8734 H       1  UNL1        0.1553
     32 C          61.1025   80.6363   13.8171 C.ar    1  UNL1        0.1469
     33 C          62.3053   80.1249   13.0809 C.ar    1  UNL1        0.1282
     34 N          63.2451   81.2753   12.8729 N.ar    1  UNL1       -0.2205
     35 C          62.6232   82.4977   13.4804 C.ar    1  UNL1        0.1958
     36 N          61.2990   82.1027   14.0640 N.ar    1  UNL1       -0.3257
     37 H          60.6694   82.7010   14.5276 H       1  UNL1        0.1682
     38 N          58.7219   79.0114   14.6495 N.1     1  UNL1       -0.1893
     39 C          59.9122   79.8239   14.2333 C.1     1  UNL1        0.1194
@<TRIPOS>BOND
     1    38    39    3
     2    39    32    1
     3    32    33   ar
     4    33    34   ar
     5    34    35   ar
     6    35    28    1
     7    28    29    2
     8    28    30   am
     9    30     1    1
    10     1     2   ar
    11     2     3   ar
    12     3     4   ar
    13     4     7    1
    14     7     8    1
    15     8     9    1
    16     9    10    1
    17    10    11   am
    18    11    12    2
    19    11    15    1
    20    15    16    1
    21    16    17   ar
    22    17    18   ar
    23    18    19   ar
    24    19    20   ar
    25    20    21   ar
    26    10    13    1
    27    13    14    1
    28     4     5   ar
    29     5     6   ar
    30     6    22    1
    31    22    23    2
    32    23    24    1
    33    24    25    1
    34    25    26    1
    35    26    27    1
    36    35    36   ar
    37    36    32   ar
    38     6     1   ar
    39    27    22    1
    40    14     7    1
    41    21    16   ar
    42    30    31    1
    43    36    37    1
@<TRIPOS>MOLECULE
*****
 39 43 0 0 0
SMALL
GASTEIGER

@<TRIPOS>ATOM
      1 C          60.7096   87.3576    9.8635 C.ar    1  UNL1        0.0502
      2 C          59.8345   86.8921    8.7378 C.ar    1  UNL1        0.0143
      3 C          59.6054   87.7788    7.5499 C.ar    1  UNL1       -0.0030
      4 C          60.2515   89.1311    7.4878 C.ar    1  UNL1       -0.0223
      5 C          61.1266   89.5966    8.6135 C.ar    1  UNL1       -0.0034
      6 C          61.3557   88.7099    9.8014 C.ar    1  UNL1        0.0089
      7 C          60.0224   90.0179    6.2998 C.3     1  UNL1        0.0257
      8 C          61.1915   90.5932    5.5567 C.3     1  UNL1        0.0259
      9 C          60.9624   91.4800    4.3687 C.3     1  UNL1        0.0937
     10 N          59.5641   91.7914    3.9239 N.am    1  UNL1       -0.2792
     11 C          59.3350   92.6781    2.7360 C.2     1  UNL1        0.2317
     12 O          57.9367   92.9895    2.2911 O.2     1  UNL1       -0.2744
     13 C          58.3950   91.2160    4.6670 C.3     1  UNL1        0.0937
     14 C          58.6241   90.3293    5.8549 C.3     1  UNL1        0.0259
     15 C          60.5041   93.2534    1.9929 C.3     1  UNL1        0.1308
     16 C          60.4020   93.5127    0.5190 C.ar    1  UNL1        0.0682
     17 C          59.7635   92.4951   -0.3791 C.ar    1  UNL1        0.0152
     18 C          59.6615   92.7544   -1.8530 C.ar    1  UNL1        0.0028
     19 C          60.1979   94.0315   -2.4287 C.ar    1  UNL1        0.0207
     20 C          60.8364   95.0491   -1.5306 C.ar    1  UNL1        0.0985
     21 N          60.9384   94.7898   -0.0567 N.ar    1  UNL1       -0.2477
     22 C          62.2309   89.1754   10.9272 C.2     1  UNL1       -0.0253
     23 C          62.5060   90.6389   11.1075 C.2     1  UNL1       -0.0303
     24 C          63.3812   91.1045   12.2332 C.3     1  UNL1        0.0257
     25 C          63.9813   90.1065   13.1788 C.3     1  UNL1        0.0050
     26 C          63.7062   88.6430   12.9985 C.3     1  UNL1        0.0050
     27 C          62.8310   88.1775   11.8727 C.3     1  UNL1        0.0261
     28 C          62.0226   85.4345   11.0159 C.2     1  UNL1        0.2837
     29 O          62.8774   85.2850    9.7924 O.2     1  UNL1       -0.2665
     30 N          60.9387   86.4708   11.0515 N.am    1  UNL1       -0.2779
     31 H          60.3777   86.5690   11.8546 H       1  UNL1        0.1553
     32 C          62.6357   82.5856   13.5797 C.ar    1  UNL1        0.1469
     33 C          62.5730   83.7808   14.4840 C.ar    1  UNL1        0.1282
     34 N          62.3357   84.9934   13.6336 N.ar    1  UNL1       -0.2205
     35 C          62.2518   84.5478   12.2038 C.ar    1  UNL1        0.1958
     36 N          62.4371   83.0597   12.1705 N.ar    1  UNL1       -0.3257
     37 H          62.4298   82.4935   11.3651 H       1  UNL1        0.1682
     38 N          63.0801   79.7458   14.4387 N.1     1  UNL1       -0.1893
     39 C          62.8579   81.1657   14.0092 C.1     1  UNL1        0.1194
@<TRIPOS>BOND
     1    38    39    3
     2    39    32    1
     3    32    33   ar
     4    33    34   ar
     5    34    35   ar
     6    35    28    1
     7    28    29    2
     8    28    30   am
     9    30     1    1
    10     1     2   ar
    11     2     3   ar
    12     3     4   ar
    13     4     7    1
    14     7     8    1
    15     8     9    1
    16     9    10    1
    17    10    11   am
    18    11    12    2
    19    11    15    1
    20    15    16    1
    21    16    17   ar
    22    17    18   ar
    23    18    19   ar
    24    19    20   ar
    25    20    21   ar
    26    10    13    1
    27    13    14    1
    28     4     5   ar
    29     5     6   ar
    30     6    22    1
    31    22    23    2
    32    23    24    1
    33    24    25    1
    34    25    26    1
    35    26    27    1
    36    35    36   ar
    37    36    32   ar
    38     6     1   ar
    39    27    22    1
    40    14     7    1
    41    21    16   ar
    42    30    31    1
    43    36    37    1
