@<TRIPOS>MOLECULE
*****
 34 38 0 0 0
SMALL
GASTEIGER

@<TRIPOS>ATOM
      1 N          61.8472   88.9578   11.4497 N.3     1  UNL1       -0.2727
      2 C          60.6764   89.8537   11.1732 C.3     1  UNL1        0.0721
      3 C          60.2646   89.6509    9.7451 C.3     1  UNL1        0.0191
      4 C          60.0901   89.2430    8.3122 C.3     1  UNL1        0.0224
      5 C          61.1811   88.6297    9.1391 C.3     1  UNL1        0.0191
      6 C          62.1592   88.2013   10.1926 C.3     1  UNL1        0.0721
      7 C          62.5779   88.8392   12.7543 C.3     1  UNL1        0.0722
      8 C          66.4862   93.0837   14.4004 C.2     1  UNL1        0.4050
      9 O          66.8736   94.1624   13.4328 O.2     1  UNL1       -0.2262
     10 N          65.5092   92.0226   13.9889 N.am    1  UNL1       -0.2460
     11 C          65.1218   90.9438   14.9564 C.3     1  UNL1        0.0968
     12 C          64.1447   89.8827   14.5450 C.3     1  UNL1        0.0231
     13 C          63.5550   89.9003   13.1659 C.3     1  UNL1        0.0194
     14 C          63.9423   90.9791   12.1982 C.3     1  UNL1        0.0231
     15 C          64.9194   92.0402   12.6097 C.3     1  UNL1        0.0968
     16 C          68.4062   92.4153   16.0181 C.3     1  UNL1        0.2573
     17 O          67.0760   93.0660   15.7795 O.3     1  UNL1       -0.4304
     18 C          59.3594   89.3616    7.0076 C.3     1  UNL1        0.0898
     19 N          59.9550   90.1573    5.8842 N.am    1  UNL1       -0.2996
     20 C          59.1079   91.1375    5.1279 C.2     1  UNL1        0.2651
     21 O          57.6654   91.3220    5.4952 O.2     1  UNL1       -0.2684
     22 H          60.9018   90.0361    5.6431 H       1  UNL1        0.1498
     23 C          59.7035   91.9331    4.0044 C.ar    1  UNL1        0.1517
     24 N          58.9944   92.9718    3.1869 N.ar    1  UNL1       -0.2260
     25 C          59.9655   93.5104    2.1785 C.ar    1  UNL1        0.1239
     26 N          61.2747   92.8046    2.3727 N.ar    1  UNL1       -0.2921
     27 C          62.5934   92.9236    1.6678 C.ar    1  UNL1        0.0811
     28 C          63.7501   92.0678    2.0914 C.ar    1  UNL1        0.0191
     29 C          63.5882   91.0930    3.2199 C.ar    1  UNL1        0.0031
     30 C          62.2696   90.9740    3.9248 C.ar    1  UNL1        0.0193
     31 C          61.1128   91.8298    3.5012 C.ar    1  UNL1        0.0872
     32 C          59.6778   94.5689    1.1554 C.3     1  UNL1        0.0573
     33 C          60.1014   95.9865    1.4033 C.3     1  UNL1        0.0079
     34 C          58.9667   94.2101   -0.1155 C.3     1  UNL1        0.0079
@<TRIPOS>BOND
     1    16    17    1
     2    17     8    1
     3     8     9    2
     4     8    10   am
     5    10    11    1
     6    11    12    1
     7    12    13    1
     8    13     7    1
     9     7     1    1
    10     1     2    1
    11     3     2    1
    12     3     4    1
    13     4    18    1
    14    18    19    1
    15    19    20   am
    16    20    21    2
    17    20    23    1
    18    23    24   ar
    19    24    25   ar
    20    25    32    1
    21    32    33    1
    22    32    34    1
    23    25    26   ar
    24    26    27   ar
    25    27    28   ar
    26    28    29   ar
    27    29    30   ar
    28    30    31   ar
    29     4     5    1
    30     5     6    1
    31    13    14    1
    32    14    15    1
    33    15    10    1
    34     6     1    1
    35     5     3    1
    36    31    23   ar
    37    31    26   ar
    38    19    22    1
@<TRIPOS>MOLECULE
*****
 34 38 0 0 0
SMALL
GASTEIGER

@<TRIPOS>ATOM
      1 N          61.8993   87.5942   10.5905 N.3     1  UNL1       -0.2727
      2 C          61.7628   89.0574   10.2895 C.3     1  UNL1        0.0721
      3 C          60.8721   89.2030    9.0913 C.3     1  UNL1        0.0191
      4 C          59.9705   89.0353    7.9043 C.3     1  UNL1        0.0224
      5 C          60.4582   87.8298    8.6519 C.3     1  UNL1        0.0191
      6 C          61.0930   86.8356    9.5785 C.3     1  UNL1        0.0721
      7 C          62.7014   86.9950   11.7075 C.3     1  UNL1        0.0722
      8 C          62.7578   81.0487   12.5056 C.2     1  UNL1        0.4050
      9 O          63.0759   80.1405   11.3550 O.2     1  UNL1       -0.2262
     10 N          62.7437   82.5352   12.3061 N.am    1  UNL1       -0.2460
     11 C          62.4257   83.4434   13.4568 C.3     1  UNL1        0.0968
     12 C          62.4116   84.9300   13.2573 C.3     1  UNL1        0.0231
     13 C          62.7155   85.5084   11.9071 C.3     1  UNL1        0.0194
     14 C          63.0335   84.6003   10.7563 C.3     1  UNL1        0.0231
     15 C          63.0476   83.1137   10.9559 C.3     1  UNL1        0.0968
     16 C          61.0302   80.3067   14.2986 C.3     1  UNL1        0.2573
     17 O          62.4539   80.4702   13.8559 O.3     1  UNL1       -0.4304
     18 C          59.1685   89.6346    6.7874 C.3     1  UNL1        0.0898
     19 N          59.8539   90.4241    5.7117 N.am    1  UNL1       -0.2996
     20 C          59.0882   91.4519    4.9323 C.2     1  UNL1        0.2651
     21 O          57.6372   91.6901    5.2285 O.2     1  UNL1       -0.2684
     22 H          60.8063   90.2678    5.5173 H       1  UNL1        0.1498
     23 C          59.7736   92.2415    3.8567 C.ar    1  UNL1        0.1517
     24 N          59.1692   93.3635    3.0656 N.ar    1  UNL1       -0.2260
     25 C          60.2058   93.8630    2.1033 C.ar    1  UNL1        0.1239
     26 N          61.4508   93.0497    2.2997 N.ar    1  UNL1       -0.2921
     27 C          62.7932   93.0923    1.6318 C.ar    1  UNL1        0.0811
     28 C          63.8684   92.1326    2.0475 C.ar    1  UNL1        0.0191
     29 C          63.6013   91.1304    3.1312 C.ar    1  UNL1        0.0031
     30 C          62.2589   91.0879    3.7991 C.ar    1  UNL1        0.0193
     31 C          61.1837   92.0475    3.3833 C.ar    1  UNL1        0.0872
     32 C          60.0285   94.9797    1.1177 C.3     1  UNL1        0.0573
     33 C          60.8190   96.2457    1.2684 C.3     1  UNL1        0.0079
     34 C          59.0608   94.8307   -0.0186 C.3     1  UNL1        0.0079
@<TRIPOS>BOND
     1    16    17    1
     2    17     8    1
     3     8     9    2
     4     8    10   am
     5    10    11    1
     6    11    12    1
     7    12    13    1
     8    13     7    1
     9     7     1    1
    10     1     2    1
    11     3     2    1
    12     3     4    1
    13     4    18    1
    14    18    19    1
    15    19    20   am
    16    20    21    2
    17    20    23    1
    18    23    24   ar
    19    24    25   ar
    20    25    32    1
    21    32    33    1
    22    32    34    1
    23    25    26   ar
    24    26    27   ar
    25    27    28   ar
    26    28    29   ar
    27    29    30   ar
    28    30    31   ar
    29     4     5    1
    30     5     6    1
    31    13    14    1
    32    14    15    1
    33    15    10    1
    34     6     1    1
    35     5     3    1
    36    31    23   ar
    37    31    26   ar
    38    19    22    1
@<TRIPOS>MOLECULE
*****
 34 38 0 0 0
SMALL
GASTEIGER

@<TRIPOS>ATOM
      1 N          65.3167   91.9470   15.1541 N.3     1  UNL1       -0.2727
      2 C          65.2488   90.5991   14.4995 C.3     1  UNL1        0.0721
      3 C          64.3532   89.7262   15.3278 C.3     1  UNL1        0.0191
      4 C          63.4316   89.1081   16.3370 C.3     1  UNL1        0.0224
      5 C          63.8677   90.5347   16.4942 C.3     1  UNL1        0.0191
      6 C          64.4631   91.9072   16.3868 C.3     1  UNL1        0.0721
      7 C          66.1006   93.1275   14.6621 C.3     1  UNL1        0.0722
      8 C          67.7442   93.4470    8.9005 C.2     1  UNL1        0.4050
      9 O          68.6389   92.3942    8.3163 O.2     1  UNL1       -0.2262
     10 N          67.3334   93.3671   10.3408 N.am    1  UNL1       -0.2460
     11 C          66.4387   94.4198   10.9251 C.3     1  UNL1        0.0968
     12 C          66.0277   94.3400   12.3655 C.3     1  UNL1        0.0231
     13 C          66.5115   93.2074   13.2217 C.3     1  UNL1        0.0194
     14 C          67.4062   92.1545   12.6376 C.3     1  UNL1        0.0231
     15 C          67.8171   92.2344   11.1972 C.3     1  UNL1        0.0968
     16 C          67.6298   95.9917    8.3896 C.3     1  UNL1        0.2573
     17 O          67.2605   94.5796    8.0442 O.3     1  UNL1       -0.4304
     18 C          62.6477   87.9276   16.8289 C.3     1  UNL1        0.0898
     19 N          62.3215   86.8015   15.8932 N.am    1  UNL1       -0.2996
     20 C          63.1812   85.5724   15.8703 C.2     1  UNL1        0.2651
     21 O          64.3670   85.4696   16.7829 O.2     1  UNL1       -0.2684
     22 H          61.5431   86.8691   15.2942 H       1  UNL1        0.1498
     23 C          62.8549   84.4463   14.9346 C.ar    1  UNL1        0.1517
     24 N          62.4908   83.0467   15.3326 N.ar    1  UNL1       -0.2260
     25 C          62.2463   82.2576   14.0806 C.ar    1  UNL1        0.1239
     26 N          62.4593   83.1695   12.9088 N.ar    1  UNL1       -0.2921
     27 C          62.3593   82.9429   11.4294 C.ar    1  UNL1        0.0811
     28 C          62.6354   84.0691   10.4779 C.ar    1  UNL1        0.0191
     29 C          63.0115   85.4218   11.0057 C.ar    1  UNL1        0.0031
     30 C          63.1115   85.6484   12.4851 C.ar    1  UNL1        0.0193
     31 C          62.8354   84.5223   13.4366 C.ar    1  UNL1        0.0872
     32 C          61.8572   80.8105   14.0123 C.3     1  UNL1        0.0573
     33 C          60.4320   80.4052   14.2463 C.3     1  UNL1        0.0079
     34 C          62.8931   79.7687   13.7100 C.3     1  UNL1        0.0079
@<TRIPOS>BOND
     1    16    17    1
     2    17     8    1
     3     8     9    2
     4     8    10   am
     5    10    11    1
     6    11    12    1
     7    12    13    1
     8    13     7    1
     9     7     1    1
    10     1     2    1
    11     3     2    1
    12     3     4    1
    13     4    18    1
    14    18    19    1
    15    19    20   am
    16    20    21    2
    17    20    23    1
    18    23    24   ar
    19    24    25   ar
    20    25    32    1
    21    32    33    1
    22    32    34    1
    23    25    26   ar
    24    26    27   ar
    25    27    28   ar
    26    28    29   ar
    27    29    30   ar
    28    30    31   ar
    29     4     5    1
    30     5     6    1
    31    13    14    1
    32    14    15    1
    33    15    10    1
    34     6     1    1
    35     5     3    1
    36    31    23   ar
    37    31    26   ar
    38    19    22    1
@<TRIPOS>MOLECULE
*****
 34 38 0 0 0
SMALL
GASTEIGER

@<TRIPOS>ATOM
      1 N          60.4188   88.1963    9.8654 N.3     1  UNL1       -0.2727
      2 C          60.7233   89.6083    9.4609 C.3     1  UNL1        0.0721
      3 C          60.1556   89.8305    8.0903 C.3     1  UNL1        0.0191
      4 C          59.4954   89.7542    6.7456 C.3     1  UNL1        0.0224
      5 C          59.5002   88.5559    7.6479 C.3     1  UNL1        0.0191
      6 C          59.6629   87.5459    8.7450 C.3     1  UNL1        0.0721
      7 C          60.8028   87.5486   11.1627 C.3     1  UNL1        0.0722
      8 C          64.2718   82.6532   11.1603 C.2     1  UNL1        0.4050
      9 O          64.7932   82.1041    9.8654 O.2     1  UNL1       -0.2262
     10 N          63.4046   83.8770   11.1609 N.am    1  UNL1       -0.2460
     11 C          62.8832   84.4261   12.4557 C.3     1  UNL1        0.0968
     12 C          62.0159   85.6500   12.4564 C.3     1  UNL1        0.0231
     13 C          61.6700   86.3247   11.1621 C.3     1  UNL1        0.0194
     14 C          62.1914   85.7757    9.8672 C.3     1  UNL1        0.0231
     15 C          63.0587   84.5518    9.8666 C.3     1  UNL1        0.0968
     16 C          63.5913   81.1460   13.1641 C.3     1  UNL1        0.2573
     17 O          64.6177   81.9783   12.4545 O.3     1  UNL1       -0.4304
     18 C          59.1115   90.4020    5.4484 C.3     1  UNL1        0.0898
     19 N          60.1744   90.9201    4.5254 N.am    1  UNL1       -0.2996
     20 C          59.8523   92.0121    3.5486 C.2     1  UNL1        0.2651
     21 O          58.4675   92.5858    3.4949 O.2     1  UNL1       -0.2684
     22 H          61.0833   90.5435    4.5607 H       1  UNL1        0.1498
     23 C          60.9152   92.5302    2.6257 C.ar    1  UNL1        0.1517
     24 N          62.3116   92.9144    3.0165 N.ar    1  UNL1       -0.2260
     25 C          63.0276   93.3767    1.7822 C.ar    1  UNL1        0.1239
     26 N          62.0739   93.2784    0.6286 N.ar    1  UNL1       -0.2921
     27 C          62.2256   93.5976   -0.8291 C.ar    1  UNL1        0.0811
     28 C          61.0717   93.3937   -1.7655 C.ar    1  UNL1        0.0191
     29 C          59.7661   92.8705   -1.2442 C.ar    1  UNL1        0.0031
     30 C          59.6144   92.5513    0.2135 C.ar    1  UNL1        0.0193
     31 C          60.7683   92.7552    1.1499 C.ar    1  UNL1        0.0872
     32 C          64.4481   93.8537    1.7135 C.3     1  UNL1        0.0573
     33 C          64.8926   95.0105    2.5589 C.3     1  UNL1        0.0079
     34 C          65.4242   93.1741    0.7996 C.3     1  UNL1        0.0079
@<TRIPOS>BOND
     1    16    17    1
     2    17     8    1
     3     8     9    2
     4     8    10   am
     5    10    11    1
     6    11    12    1
     7    12    13    1
     8    13     7    1
     9     7     1    1
    10     1     2    1
    11     3     2    1
    12     3     4    1
    13     4    18    1
    14    18    19    1
    15    19    20   am
    16    20    21    2
    17    20    23    1
    18    23    24   ar
    19    24    25   ar
    20    25    32    1
    21    32    33    1
    22    32    34    1
    23    25    26   ar
    24    26    27   ar
    25    27    28   ar
    26    28    29   ar
    27    29    30   ar
    28    30    31   ar
    29     4     5    1
    30     5     6    1
    31    13    14    1
    32    14    15    1
    33    15    10    1
    34     6     1    1
    35     5     3    1
    36    31    23   ar
    37    31    26   ar
    38    19    22    1
@<TRIPOS>MOLECULE
*****
 34 38 0 0 0
SMALL
GASTEIGER

@<TRIPOS>ATOM
      1 N          61.2321   89.3243   10.9590 N.3     1  UNL1       -0.2727
      2 C          60.1268   90.2524   10.5506 C.3     1  UNL1        0.0721
      3 C          59.9192   90.1040    9.0724 C.3     1  UNL1        0.0191
      4 C          59.9439   89.7459    7.6160 C.3     1  UNL1        0.0224
      5 C          60.8963   89.0842    8.5673 C.3     1  UNL1        0.0191
      6 C          61.7078   88.6023    9.7333 C.3     1  UNL1        0.0721
      7 C          61.7678   89.1490   12.3491 C.3     1  UNL1        0.0722
      8 C          66.7104   92.0931   14.0528 C.2     1  UNL1        0.4050
      9 O          67.1960   93.2676   13.2560 O.2     1  UNL1       -0.2262
     10 N          65.4748   91.3571   13.6269 N.am    1  UNL1       -0.2460
     11 C          64.9893   90.1827   14.4236 C.3     1  UNL1        0.0968
     12 C          63.7536   89.4466   13.9978 C.3     1  UNL1        0.0231
     13 C          63.0035   89.8850   12.7750 C.3     1  UNL1        0.0194
     14 C          63.4889   91.0595   11.9781 C.3     1  UNL1        0.0231
     15 C          64.7246   91.7956   12.4041 C.3     1  UNL1        0.0968
     16 C          68.3734   92.6142   15.9796 C.3     1  UNL1        0.2573
     17 O          67.4606   91.6547   15.2756 O.3     1  UNL1       -0.4304
     18 C          59.4082   89.9212    6.2260 C.3     1  UNL1        0.0898
     19 N          60.2712   90.5301    5.1609 N.am    1  UNL1       -0.2996
     20 C          59.7984   91.7424    4.4146 C.2     1  UNL1        0.2651
     21 O          58.4627   92.3456    4.7333 O.2     1  UNL1       -0.2684
     22 H          61.1480   90.1342    4.9518 H       1  UNL1        0.1498
     23 C          60.6615   92.3513    3.3495 C.ar    1  UNL1        0.1517
     24 N          62.1352   92.6117    3.4509 N.ar    1  UNL1       -0.2260
     25 C          62.5869   93.2280    2.1601 C.ar    1  UNL1        0.1239
     26 N          61.3923   93.3486    1.2610 N.ar    1  UNL1       -0.2921
     27 C          61.2343   93.8817   -0.1321 C.ar    1  UNL1        0.0811
     28 C          59.8864   93.8730   -0.7901 C.ar    1  UNL1        0.0191
     29 C          58.6964   93.3311   -0.0550 C.ar    1  UNL1        0.0031
     30 C          58.8544   92.7980    1.3381 C.ar    1  UNL1        0.0193
     31 C          60.2023   92.8067    1.9961 C.ar    1  UNL1        0.0872
     32 C          63.9873   93.6498    1.8269 C.3     1  UNL1        0.0573
     33 C          64.5639   94.8897    2.4436 C.3     1  UNL1        0.0079
     34 C          64.8110   92.8319    0.8770 C.3     1  UNL1        0.0079
@<TRIPOS>BOND
     1    16    17    1
     2    17     8    1
     3     8     9    2
     4     8    10   am
     5    10    11    1
     6    11    12    1
     7    12    13    1
     8    13     7    1
     9     7     1    1
    10     1     2    1
    11     3     2    1
    12     3     4    1
    13     4    18    1
    14    18    19    1
    15    19    20   am
    16    20    21    2
    17    20    23    1
    18    23    24   ar
    19    24    25   ar
    20    25    32    1
    21    32    33    1
    22    32    34    1
    23    25    26   ar
    24    26    27   ar
    25    27    28   ar
    26    28    29   ar
    27    29    30   ar
    28    30    31   ar
    29     4     5    1
    30     5     6    1
    31    13    14    1
    32    14    15    1
    33    15    10    1
    34     6     1    1
    35     5     3    1
    36    31    23   ar
    37    31    26   ar
    38    19    22    1
@<TRIPOS>MOLECULE
*****
 34 38 0 0 0
SMALL
GASTEIGER

@<TRIPOS>ATOM
      1 N          60.1348   87.4222    8.5528 N.3     1  UNL1       -0.2727
      2 C          60.5371   88.8664    8.6006 C.3     1  UNL1        0.0721
      3 C          59.8611   89.5738    7.4637 C.3     1  UNL1        0.0191
      4 C          59.0662   89.9978    6.2644 C.3     1  UNL1        0.0224
      5 C          59.0410   88.5668    6.7132 C.3     1  UNL1        0.0191
      6 C          59.2101   87.2370    7.3864 C.3     1  UNL1        0.0721
      7 C          60.5791   86.3512    9.5044 C.3     1  UNL1        0.0722
      8 C          64.2617   87.7096   14.0424 C.2     1  UNL1        0.4050
      9 O          64.6074   89.1416   14.3248 O.2     1  UNL1       -0.2262
     10 N          63.3411   87.3700   12.9080 N.am    1  UNL1       -0.2460
     11 C          62.9953   85.9380   12.6255 C.3     1  UNL1        0.0968
     12 C          62.0746   85.5983   11.4910 C.3     1  UNL1        0.0231
     13 C          61.4997   86.6908   10.6389 C.3     1  UNL1        0.0194
     14 C          61.8454   88.1229   10.9213 C.3     1  UNL1        0.0231
     15 C          62.7661   88.4625   12.0558 C.3     1  UNL1        0.0968
     16 C          63.9829   85.9441   15.9279 C.3     1  UNL1        0.2573
     17 O          64.8366   86.6172   14.8945 O.3     1  UNL1       -0.4304
     18 C          58.6220   91.0688    5.3128 C.3     1  UNL1        0.0898
     19 N          59.3981   91.3233    4.0547 N.am    1  UNL1       -0.2996
     20 C          59.7807   92.7246    3.6799 C.2     1  UNL1        0.2651
     21 O          59.3870   93.8711    4.5632 O.2     1  UNL1       -0.2684
     22 H          59.6565   90.5708    3.4750 H       1  UNL1        0.1498
     23 C          60.5569   92.9791    2.4218 C.ar    1  UNL1        0.1517
     24 N          62.0298   93.2487    2.3339 N.ar    1  UNL1       -0.2260
     25 C          62.3796   93.4449    0.8885 C.ar    1  UNL1        0.1239
     26 N          61.1228   93.2965    0.0832 N.ar    1  UNL1       -0.2921
     27 C          60.8587   93.3864   -1.3906 C.ar    1  UNL1        0.0811
     28 C          59.4681   93.1884   -1.9168 C.ar    1  UNL1        0.0191
     29 C          58.3416   92.9005   -0.9691 C.ar    1  UNL1        0.0031
     30 C          58.6057   92.8106    0.5047 C.ar    1  UNL1        0.0193
     31 C          59.9963   93.0086    1.0308 C.ar    1  UNL1        0.0872
     32 C          63.7462   93.7379    0.3440 C.3     1  UNL1        0.0573
     33 C          64.9461   93.0418    0.9148 C.3     1  UNL1        0.0079
     34 C          63.9130   94.7270   -0.7712 C.3     1  UNL1        0.0079
@<TRIPOS>BOND
     1    16    17    1
     2    17     8    1
     3     8     9    2
     4     8    10   am
     5    10    11    1
     6    11    12    1
     7    12    13    1
     8    13     7    1
     9     7     1    1
    10     1     2    1
    11     3     2    1
    12     3     4    1
    13     4    18    1
    14    18    19    1
    15    19    20   am
    16    20    21    2
    17    20    23    1
    18    23    24   ar
    19    24    25   ar
    20    25    32    1
    21    32    33    1
    22    32    34    1
    23    25    26   ar
    24    26    27   ar
    25    27    28   ar
    26    28    29   ar
    27    29    30   ar
    28    30    31   ar
    29     4     5    1
    30     5     6    1
    31    13    14    1
    32    14    15    1
    33    15    10    1
    34     6     1    1
    35     5     3    1
    36    31    23   ar
    37    31    26   ar
    38    19    22    1
@<TRIPOS>MOLECULE
*****
 34 38 0 0 0
SMALL
GASTEIGER

@<TRIPOS>ATOM
      1 N          60.3152   87.4113    8.3924 N.3     1  UNL1       -0.2727
      2 C          60.3457   88.8833    8.6795 C.3     1  UNL1        0.0721
      3 C          59.6349   89.5883    7.5624 C.3     1  UNL1        0.0191
      4 C          58.8850   90.0036    6.3315 C.3     1  UNL1        0.0224
      5 C          59.1652   88.5520    6.5850 C.3     1  UNL1        0.0191
      6 C          59.5856   87.2065    7.0980 C.3     1  UNL1        0.0721
      7 C          60.9100   86.3335    9.2494 C.3     1  UNL1        0.0722
      8 C          64.1993   87.7910   14.0510 C.2     1  UNL1        0.4050
      9 O          64.6411   86.7249   15.0092 O.2     1  UNL1       -0.2262
     10 N          63.3770   87.4266   12.8507 N.am    1  UNL1       -0.2460
     11 C          62.9352   88.4928   11.8925 C.3     1  UNL1        0.0968
     12 C          62.1128   88.1284   10.6921 C.3     1  UNL1        0.0231
     13 C          61.7323   86.6979   10.4498 C.3     1  UNL1        0.0194
     14 C          62.1741   85.6316   11.4080 C.3     1  UNL1        0.0231
     15 C          62.9964   85.9960   12.6084 C.3     1  UNL1        0.0968
     16 C          63.6330   90.1387   15.0090 C.3     1  UNL1        0.2573
     17 O          64.5799   89.2216   14.2933 O.3     1  UNL1       -0.4304
     18 C          58.2903   91.0815    5.4746 C.3     1  UNL1        0.0898
     19 N          58.8634   91.3620    4.1170 N.am    1  UNL1       -0.2996
     20 C          59.3722   92.7340    3.7865 C.2     1  UNL1        0.2651
     21 O          59.3078   93.8252    4.8136 O.2     1  UNL1       -0.2684
     22 H          58.9056   90.6457    3.4429 H       1  UNL1        0.1498
     23 C          59.9453   93.0144    2.4290 C.ar    1  UNL1        0.1517
     24 N          59.1681   93.4091    1.2083 N.ar    1  UNL1       -0.2260
     25 C          60.1387   93.5881    0.0787 C.ar    1  UNL1        0.1239
     26 N          61.5157   93.3041    0.6013 N.ar    1  UNL1       -0.2921
     27 C          62.8630   93.3225   -0.0578 C.ar    1  UNL1        0.0811
     28 C          64.0907   92.9863    0.7357 C.ar    1  UNL1        0.0191
     29 C          63.9712   92.6318    2.1883 C.ar    1  UNL1        0.0031
     30 C          62.6239   92.6134    2.8474 C.ar    1  UNL1        0.0193
     31 C          61.3962   92.9495    2.0539 C.ar    1  UNL1        0.0872
     32 C          59.7930   93.9819   -1.3268 C.3     1  UNL1        0.0573
     33 C          60.2858   93.1580   -2.4794 C.3     1  UNL1        0.0079
     34 C          58.9545   95.1996   -1.5798 C.3     1  UNL1        0.0079
@<TRIPOS>BOND
     1    16    17    1
     2    17     8    1
     3     8     9    2
     4     8    10   am
     5    10    11    1
     6    11    12    1
     7    12    13    1
     8    13     7    1
     9     7     1    1
    10     1     2    1
    11     3     2    1
    12     3     4    1
    13     4    18    1
    14    18    19    1
    15    19    20   am
    16    20    21    2
    17    20    23    1
    18    23    24   ar
    19    24    25   ar
    20    25    32    1
    21    32    33    1
    22    32    34    1
    23    25    26   ar
    24    26    27   ar
    25    27    28   ar
    26    28    29   ar
    27    29    30   ar
    28    30    31   ar
    29     4     5    1
    30     5     6    1
    31    13    14    1
    32    14    15    1
    33    15    10    1
    34     6     1    1
    35     5     3    1
    36    31    23   ar
    37    31    26   ar
    38    19    22    1
@<TRIPOS>MOLECULE
*****
 34 38 0 0 0
SMALL
GASTEIGER

@<TRIPOS>ATOM
      1 N          63.8359   91.6141   10.9720 N.3     1  UNL1       -0.2727
      2 C          63.0580   91.2282    9.7489 C.3     1  UNL1        0.0721
      3 C          62.2520   90.0067   10.0785 C.3     1  UNL1        0.0191
      4 C          61.5794   88.8137   10.6905 C.3     1  UNL1        0.0224
      5 C          62.5320   89.6377   11.5052 C.3     1  UNL1        0.0191
      6 C          63.5109   90.6311   12.0574 C.3     1  UNL1        0.0721
      7 C          64.7742   92.7785   11.0890 C.3     1  UNL1        0.0722
      8 C          68.3663   93.2680   15.8699 C.2     1  UNL1        0.4050
      9 O          68.8421   92.0354   16.5798 O.2     1  UNL1       -0.2262
     10 N          67.4683   93.1457   14.6747 N.am    1  UNL1       -0.2460
     11 C          66.9925   94.3783   13.9647 C.3     1  UNL1        0.0968
     12 C          66.0944   94.2560   12.7695 C.3     1  UNL1        0.0231
     13 C          65.6722   92.9009   12.2842 C.3     1  UNL1        0.0194
     14 C          66.1481   91.6681   12.9941 C.3     1  UNL1        0.0231
     15 C          67.0461   91.7905   14.1894 C.3     1  UNL1        0.0968
     16 C          70.1188   95.1844   15.9489 C.3     1  UNL1        0.2573
     17 O          68.7885   94.6232   16.3552 O.3     1  UNL1       -0.4304
     18 C          60.6412   87.6494   10.5734 C.3     1  UNL1        0.0898
     19 N          60.9679   86.3518   11.2513 N.am    1  UNL1       -0.2996
     20 C          62.1345   85.5336   10.7826 C.2     1  UNL1        0.2651
     21 O          62.9743   86.0130    9.6360 O.2     1  UNL1       -0.2684
     22 H          60.4167   86.0372   12.0040 H       1  UNL1        0.1498
     23 C          62.4613   84.2361   11.4606 C.ar    1  UNL1        0.1517
     24 N          62.2550   82.8654   10.8874 N.ar    1  UNL1       -0.2260
     25 C          62.7179   81.8636   11.9034 C.ar    1  UNL1        0.1239
     26 N          63.2103   82.6152   13.1045 N.ar    1  UNL1       -0.2921
     27 C          63.7826   82.1539   14.4120 C.ar    1  UNL1        0.0811
     28 C          64.1962   83.1589   15.4459 C.ar    1  UNL1        0.0191
     29 C          64.0376   84.6252   15.1722 C.ar    1  UNL1        0.0031
     30 C          63.4654   85.0865   13.8647 C.ar    1  UNL1        0.0193
     31 C          63.0517   84.0815   12.8308 C.ar    1  UNL1        0.0872
     32 C          62.6928   80.3721   11.7460 C.3     1  UNL1        0.0573
     33 C          62.9505   79.7552   10.4031 C.3     1  UNL1        0.0079
     34 C          62.4101   79.4975   12.9312 C.3     1  UNL1        0.0079
@<TRIPOS>BOND
     1    16    17    1
     2    17     8    1
     3     8     9    2
     4     8    10   am
     5    10    11    1
     6    11    12    1
     7    12    13    1
     8    13     7    1
     9     7     1    1
    10     1     2    1
    11     3     2    1
    12     3     4    1
    13     4    18    1
    14    18    19    1
    15    19    20   am
    16    20    21    2
    17    20    23    1
    18    23    24   ar
    19    24    25   ar
    20    25    32    1
    21    32    33    1
    22    32    34    1
    23    25    26   ar
    24    26    27   ar
    25    27    28   ar
    26    28    29   ar
    27    29    30   ar
    28    30    31   ar
    29     4     5    1
    30     5     6    1
    31    13    14    1
    32    14    15    1
    33    15    10    1
    34     6     1    1
    35     5     3    1
    36    31    23   ar
    37    31    26   ar
    38    19    22    1
@<TRIPOS>MOLECULE
*****
 34 38 0 0 0
SMALL
GASTEIGER

@<TRIPOS>ATOM
      1 N          62.9613   84.9643   16.2657 N.3     1  UNL1       -0.2727
      2 C          62.0204   85.6983   17.1745 C.3     1  UNL1        0.0721
      3 C          62.3575   87.1585   17.1092 C.3     1  UNL1        0.0191
      4 C          62.9156   88.5250   16.8422 C.3     1  UNL1        0.0224
      5 C          63.5067   87.3269   16.1600 C.3     1  UNL1        0.0191
      6 C          63.8799   85.9708   15.6387 C.3     1  UNL1        0.0721
      7 C          62.9803   83.4837   16.0260 C.3     1  UNL1        0.0722
      8 C          63.5643   81.3552   10.4467 C.2     1  UNL1        0.4050
      9 O          64.6657   81.8604    9.5627 O.2     1  UNL1       -0.2262
     10 N          63.4183   81.8873   11.8415 N.am    1  UNL1       -0.2460
     11 C          62.3168   81.3821   12.7255 C.3     1  UNL1        0.0968
     12 C          62.1707   81.9142   14.1204 C.3     1  UNL1        0.0231
     13 C          63.1262   82.9516   14.6312 C.3     1  UNL1        0.0194
     14 C          64.2278   83.4568   13.7472 C.3     1  UNL1        0.0231
     15 C          64.3738   82.9247   12.3524 C.3     1  UNL1        0.0968
     16 C          63.1059   78.9455    9.5905 C.3     1  UNL1        0.2573
     17 O          62.6087   80.3178    9.9359 O.3     1  UNL1       -0.4304
     18 C          62.8966   90.0055   17.0820 C.3     1  UNL1        0.0898
     19 N          63.9017   90.8881   16.4031 N.am    1  UNL1       -0.2996
     20 C          64.0248   90.8727   14.9081 C.2     1  UNL1        0.2651
     21 O          63.1430   89.9747   14.0923 O.2     1  UNL1       -0.2684
     22 H          64.4805   91.4776   16.9386 H       1  UNL1        0.1498
     23 C          65.0299   91.7553   14.2293 C.ar    1  UNL1        0.1517
     24 N          64.8915   92.3612   12.8641 N.ar    1  UNL1       -0.2260
     25 C          66.1259   93.1673   12.5875 C.ar    1  UNL1        0.1239
     26 N          67.0271   93.0596   13.7817 N.ar    1  UNL1       -0.2921
     27 C          68.3771   93.6434   14.0763 C.ar    1  UNL1        0.0811
     28 C          69.0496   93.3545   15.3855 C.ar    1  UNL1        0.0191
     29 C          68.3722   92.4818   16.4002 C.ar    1  UNL1        0.0031
     30 C          67.0223   91.8980   16.1056 C.ar    1  UNL1        0.0193
     31 C          66.3498   92.1869   14.7964 C.ar    1  UNL1        0.0872
     32 C          66.4093   93.9447   11.3364 C.3     1  UNL1        0.0573
     33 C          66.9770   93.2501   10.1341 C.3     1  UNL1        0.0079
     34 C          66.1250   95.4167   11.2873 C.3     1  UNL1        0.0079
@<TRIPOS>BOND
     1    16    17    1
     2    17     8    1
     3     8     9    2
     4     8    10   am
     5    10    11    1
     6    11    12    1
     7    12    13    1
     8    13     7    1
     9     7     1    1
    10     1     2    1
    11     3     2    1
    12     3     4    1
    13     4    18    1
    14    18    19    1
    15    19    20   am
    16    20    21    2
    17    20    23    1
    18    23    24   ar
    19    24    25   ar
    20    25    32    1
    21    32    33    1
    22    32    34    1
    23    25    26   ar
    24    26    27   ar
    25    27    28   ar
    26    28    29   ar
    27    29    30   ar
    28    30    31   ar
    29     4     5    1
    30     5     6    1
    31    13    14    1
    32    14    15    1
    33    15    10    1
    34     6     1    1
    35     5     3    1
    36    31    23   ar
    37    31    26   ar
    38    19    22    1
