@<TRIPOS>MOLECULE
*****
 39 42 0 0 0
SMALL
GASTEIGER

@<TRIPOS>ATOM
      1 N          62.7827   88.9777   11.4521 N.am    1  UNL1       -0.2927
      2 C          61.4414   89.1786   10.8115 C.2     1  UNL1        0.2508
      3 O          60.6004   90.3623   11.1875 O.2     1  UNL1       -0.2700
      4 H          63.3347   88.2008   11.2054 H       1  UNL1        0.1502
      5 C          60.9411   88.1956    9.7949 C.ar    1  UNL1        0.1068
      6 C          59.7978   88.5628    8.8959 C.ar    1  UNL1        0.0108
      7 C          59.2974   87.5800    7.8793 C.ar    1  UNL1        0.0210
      8 C          59.9403   86.2299    7.7616 C.ar    1  UNL1        0.1021
      9 N          61.0836   85.8626    8.6606 N.ar    1  UNL1       -0.2097
     10 C          61.5839   86.8455    9.6772 C.ar    1  UNL1        0.2340
     11 O          62.7272   86.4783   10.5762 O.3     1  UNL1       -0.4351
     12 C          62.7493   85.1396   11.2526 C.ar    1  UNL1        0.1576
     13 C          62.2620   85.0047   12.6648 C.ar    1  UNL1        0.0384
     14 C          62.2842   83.6661   13.3412 C.ar    1  UNL1        0.0070
     15 C          62.7937   82.4623   12.6054 C.ar    1  UNL1        0.0725
     16 C          63.2810   82.5972   11.1932 C.ar    1  UNL1        0.0183
     17 C          63.2588   83.9359   10.5168 C.ar    1  UNL1        0.0921
     18 CL         63.7461   84.0707    9.1046 Cl      1  UNL1       -0.0791
     19 C          62.8159   81.1237   13.2818 C.3     1  UNL1        0.4186
     20 F          62.8380   79.7850   13.9582 F       1  UNL1       -0.1659
     21 F          61.3171   81.1295   13.3424 F       1  UNL1       -0.1659
     22 F          64.3146   81.1179   13.2212 F       1  UNL1       -0.1659
     23 C          63.2831   89.9607   12.4688 C.3     1  UNL1        0.1789
     24 C          68.0595   93.7719   15.6169 C.3     1  UNL1        0.0897
     25 N          67.0447   93.1291   14.7186 N.3     1  UNL1       -0.2686
     26 C          66.7472   93.7261   13.3751 C.3     1  UNL1        0.0939
     27 C          65.7324   93.0833   12.4768 C.3     1  UNL1        0.1108
     28 N          65.0152   91.8434   12.9219 N.am    1  UNL1       -0.2753
     29 C          64.0004   91.2005   12.0236 C.2     1  UNL1        0.2462
     30 O          63.7029   91.7976   10.6801 O.2     1  UNL1       -0.2730
     31 C          65.3127   91.2464   14.2654 C.3     1  UNL1        0.1108
     32 C          66.3274   91.8892   15.1637 C.3     1  UNL1        0.0939
     33 C          63.0662   89.7037   13.9306 C.3     1  UNL1        0.1710
     34 O          63.8131   88.5985   14.6168 O.3     1  UNL1       -0.3515
     35 C          63.4393   88.1942   16.0120 C.3     1  UNL1        0.1421
     36 C          63.4509   86.7458   16.4017 C.3     1  UNL1        0.0274
     37 C          62.6065   86.8025   17.6402 C.3     1  UNL1        0.0025
     38 C          63.7557   85.2776   16.3613 C.3     1  UNL1        0.0025
     39 C          64.2992   86.1860   15.2986 C.3     1  UNL1        0.0025
@<TRIPOS>BOND
     1    24    25    1
     2    25    26    1
     3    26    27    1
     4    27    28    1
     5    28    29   am
     6    29    30    2
     7    29    23    1
     8    23    33    1
     9    33    34    1
    10    34    35    1
    11    35    36    1
    12    36    37    1
    13    36    38    1
    14    38    39    1
    15    23     1    1
    16     1     2   am
    17     2     3    2
    18     2     5    1
    19     5     6   ar
    20     6     7   ar
    21     7     8   ar
    22     8     9   ar
    23     9    10   ar
    24    10    11    1
    25    11    12    1
    26    12    13   ar
    27    13    14   ar
    28    14    15   ar
    29    15    19    1
    30    19    20    1
    31    19    21    1
    32    19    22    1
    33    15    16   ar
    34    16    17   ar
    35    17    18    1
    36    28    31    1
    37    31    32    1
    38    32    25    1
    39    39    36    1
    40    10     5   ar
    41    17    12   ar
    42     1     4    1
@<TRIPOS>MOLECULE
*****
 39 42 0 0 0
SMALL
GASTEIGER

@<TRIPOS>ATOM
      1 N          62.9344   89.7614   10.5068 N.am    1  UNL1       -0.2927
      2 C          61.4521   89.6697   10.2958 C.2     1  UNL1        0.2508
      3 O          60.5405   90.6785   10.9294 O.2     1  UNL1       -0.2700
      4 H          63.5327   89.0993   10.0910 H       1  UNL1        0.1502
      5 C          60.8815   88.5693    9.4510 C.ar    1  UNL1        0.1068
      6 C          59.7589   88.8597    8.4994 C.ar    1  UNL1        0.0108
      7 C          59.1883   87.7594    7.6547 C.ar    1  UNL1        0.0210
      8 C          59.7401   86.3687    7.7616 C.ar    1  UNL1        0.1021
      9 N          60.8626   86.0784    8.7133 N.ar    1  UNL1       -0.2097
     10 C          61.4333   87.1787    9.5580 C.ar    1  UNL1        0.2340
     11 O          62.5558   86.8883   10.5096 O.3     1  UNL1       -0.4351
     12 C          62.6676   85.5352   11.1472 C.ar    1  UNL1        0.1576
     13 C          62.2766   85.3482   12.5833 C.ar    1  UNL1        0.0384
     14 C          62.3883   83.9950   13.2208 C.ar    1  UNL1        0.0070
     15 C          62.8910   82.8289   12.4224 C.ar    1  UNL1        0.0725
     16 C          63.2819   83.0159   10.9864 C.ar    1  UNL1        0.0183
     17 C          63.1702   84.3691   10.3487 C.ar    1  UNL1        0.0921
     18 CL         63.5611   84.5561    8.9127 Cl      1  UNL1       -0.0791
     19 C          63.0027   81.4758   13.0599 C.3     1  UNL1        0.4186
     20 F          63.1143   80.1226   13.6975 F       1  UNL1       -0.1659
     21 F          61.5116   81.4257   13.2150 F       1  UNL1       -0.1659
     22 F          64.4938   81.5258   12.9049 F       1  UNL1       -0.1659
     23 C          63.5050   90.8618   11.3516 C.3     1  UNL1        0.1789
     24 C          67.8510   93.4644   15.9980 C.3     1  UNL1        0.0897
     25 N          66.7759   92.7771   15.2094 N.3     1  UNL1       -0.2686
     26 C          65.7467   91.9429   15.9129 C.3     1  UNL1        0.0939
     27 C          64.6717   91.2556   15.1243 C.3     1  UNL1        0.1108
     28 N          64.6259   91.4024   13.6322 N.am    1  UNL1       -0.2753
     29 C          63.5509   90.7150   12.8436 C.2     1  UNL1        0.2462
     30 O          62.5216   89.8809   13.5471 O.2     1  UNL1       -0.2730
     31 C          65.6551   92.2365   12.9288 C.3     1  UNL1        0.1108
     32 C          66.7301   92.9238   13.7174 C.3     1  UNL1        0.0939
     33 C          64.0299   92.1090   10.7041 C.3     1  UNL1        0.1710
     34 O          65.3799   92.1034   10.0502 O.3     1  UNL1       -0.3515
     35 C          66.2096   93.3529   10.0321 C.3     1  UNL1        0.1421
     36 C          67.6238   93.3069    9.5343 C.3     1  UNL1        0.0274
     37 C          67.7165   94.6574    8.8881 C.3     1  UNL1        0.0025
     38 C          69.0059   92.7919    9.2610 C.3     1  UNL1        0.0025
     39 C          68.0224   91.9405   10.0077 C.3     1  UNL1        0.0025
@<TRIPOS>BOND
     1    24    25    1
     2    25    26    1
     3    26    27    1
     4    27    28    1
     5    28    29   am
     6    29    30    2
     7    29    23    1
     8    23    33    1
     9    33    34    1
    10    34    35    1
    11    35    36    1
    12    36    37    1
    13    36    38    1
    14    38    39    1
    15    23     1    1
    16     1     2   am
    17     2     3    2
    18     2     5    1
    19     5     6   ar
    20     6     7   ar
    21     7     8   ar
    22     8     9   ar
    23     9    10   ar
    24    10    11    1
    25    11    12    1
    26    12    13   ar
    27    13    14   ar
    28    14    15   ar
    29    15    19    1
    30    19    20    1
    31    19    21    1
    32    19    22    1
    33    15    16   ar
    34    16    17   ar
    35    17    18    1
    36    28    31    1
    37    31    32    1
    38    32    25    1
    39    39    36    1
    40    10     5   ar
    41    17    12   ar
    42     1     4    1
@<TRIPOS>MOLECULE
*****
 39 42 0 0 0
SMALL
GASTEIGER

@<TRIPOS>ATOM
      1 N          62.1248   85.7210   12.5899 N.am    1  UNL1       -0.2927
      2 C          62.3272   85.8081   11.1062 C.2     1  UNL1        0.2508
      3 O          63.4258   85.0240   10.4519 O.2     1  UNL1       -0.2700
      4 H          61.4037   86.2357   13.0194 H       1  UNL1        0.1502
      5 C          61.4311   86.6794   10.2768 C.ar    1  UNL1        0.1068
      6 C          60.7526   86.1172    9.0629 C.ar    1  UNL1        0.0108
      7 C          59.8565   86.9884    8.2335 C.ar    1  UNL1        0.0210
      8 C          59.6389   88.4218    8.6180 C.ar    1  UNL1        0.1021
      9 N          60.3174   88.9840    9.8319 N.ar    1  UNL1       -0.2097
     10 C          61.2135   88.1128   10.6613 C.ar    1  UNL1        0.2340
     11 O          61.8920   88.6750   11.8752 O.3     1  UNL1       -0.4351
     12 C          62.8364   89.8323   11.7381 C.ar    1  UNL1        0.1576
     13 C          63.1407   90.3954   10.3815 C.ar    1  UNL1        0.0384
     14 C          64.0851   91.5527   10.2444 C.ar    1  UNL1        0.0070
     15 C          64.7252   92.1468   11.4639 C.ar    1  UNL1        0.0725
     16 C          64.4210   91.5838   12.8205 C.ar    1  UNL1        0.0183
     17 C          63.4766   90.4264   12.9576 C.ar    1  UNL1        0.0921
     18 CL         63.1723   89.8634   14.3142 Cl      1  UNL1       -0.0791
     19 C          65.6696   93.3041   11.3268 C.3     1  UNL1        0.4186
     20 F          66.6141   94.4614   11.1897 F       1  UNL1       -0.1659
     21 F          65.6217   93.1664    9.8340 F       1  UNL1       -0.1659
     22 F          65.7176   93.4418   12.8197 F       1  UNL1       -0.1659
     23 C          63.0209   84.8497   13.4193 C.3     1  UNL1        0.1789
     24 C          62.9109   78.7172   10.3161 C.3     1  UNL1        0.0897
     25 N          62.8167   79.9166   11.2120 N.3     1  UNL1       -0.2686
     26 C          62.2354   79.7810   12.5881 C.3     1  UNL1        0.0939
     27 C          62.1412   80.9804   13.4840 C.3     1  UNL1        0.1108
     28 N          62.6282   82.3154   13.0037 N.am    1  UNL1       -0.2753
     29 C          62.5339   83.5147   13.8996 C.2     1  UNL1        0.2462
     30 O          61.9526   83.3792   15.2757 O.2     1  UNL1       -0.2730
     31 C          63.2094   82.4509   11.6276 C.3     1  UNL1        0.1108
     32 C          63.3037   81.2515   10.7317 C.3     1  UNL1        0.0939
     33 C          64.4040   85.3134   13.7685 C.3     1  UNL1        0.1710
     34 O          64.6613   85.9788   15.0881 O.3     1  UNL1       -0.3515
     35 C          63.8218   87.1460   15.5157 C.3     1  UNL1        0.1421
     36 C          63.1967   87.1607   16.8791 C.3     1  UNL1        0.0274
     37 C          63.1050   88.6404   17.1076 C.3     1  UNL1        0.0025
     38 C          62.6035   86.6616   18.1633 C.3     1  UNL1        0.0025
     39 C          63.0714   85.6863   17.1242 C.3     1  UNL1        0.0025
@<TRIPOS>BOND
     1    24    25    1
     2    25    26    1
     3    26    27    1
     4    27    28    1
     5    28    29   am
     6    29    30    2
     7    29    23    1
     8    23    33    1
     9    33    34    1
    10    34    35    1
    11    35    36    1
    12    36    37    1
    13    36    38    1
    14    38    39    1
    15    23     1    1
    16     1     2   am
    17     2     3    2
    18     2     5    1
    19     5     6   ar
    20     6     7   ar
    21     7     8   ar
    22     8     9   ar
    23     9    10   ar
    24    10    11    1
    25    11    12    1
    26    12    13   ar
    27    13    14   ar
    28    14    15   ar
    29    15    19    1
    30    19    20    1
    31    19    21    1
    32    19    22    1
    33    15    16   ar
    34    16    17   ar
    35    17    18    1
    36    28    31    1
    37    31    32    1
    38    32    25    1
    39    39    36    1
    40    10     5   ar
    41    17    12   ar
    42     1     4    1
@<TRIPOS>MOLECULE
*****
 39 42 0 0 0
SMALL
GASTEIGER

@<TRIPOS>ATOM
      1 N          63.9062   88.8520   12.8467 N.am    1  UNL1       -0.2927
      2 C          63.9190   87.9988   14.0804 C.2     1  UNL1        0.2508
      3 O          63.8730   88.6396   15.4359 O.2     1  UNL1       -0.2700
      4 H          63.9365   88.4314   11.9571 H       1  UNL1        0.1502
      5 C          63.9779   86.5049   13.9586 C.ar    1  UNL1        0.1068
      6 C          64.7766   85.7031   14.9431 C.ar    1  UNL1        0.0108
      7 C          64.8355   84.2092   14.8213 C.ar    1  UNL1        0.0210
      8 C          64.0957   83.5172   13.7151 C.ar    1  UNL1        0.1021
      9 N          63.2971   84.3190   12.7306 N.ar    1  UNL1       -0.2097
     10 C          63.2382   85.8129   12.8524 C.ar    1  UNL1        0.2340
     11 O          62.4395   86.6147   11.8679 O.3     1  UNL1       -0.4351
     12 C          62.2599   86.1160   10.4647 C.ar    1  UNL1        0.1576
     13 C          63.2488   85.1522    9.8789 C.ar    1  UNL1        0.0384
     14 C          63.0692   84.6535    8.4757 C.ar    1  UNL1        0.0070
     15 C          61.9007   85.1185    7.6582 C.ar    1  UNL1        0.0725
     16 C          60.9117   86.0823    8.2440 C.ar    1  UNL1        0.0183
     17 C          61.0913   86.5810    9.6472 C.ar    1  UNL1        0.0921
     18 CL         60.1024   87.5448   10.2330 Cl      1  UNL1       -0.0791
     19 C          61.7210   84.6198    6.2551 C.3     1  UNL1        0.4186
     20 F          61.5413   84.1211    4.8518 F       1  UNL1       -0.1659
     21 F          60.2319   84.6702    6.4278 F       1  UNL1       -0.1659
     22 F          63.2102   84.5694    6.0823 F       1  UNL1       -0.1659
     23 C          63.8473   90.3459   12.9685 C.3     1  UNL1        0.1789
     24 C          69.4774   93.2797   15.6037 C.3     1  UNL1        0.0897
     25 N          68.1289   92.7098   15.2772 N.3     1  UNL1       -0.2686
     26 C          67.0164   92.7938   16.2798 C.3     1  UNL1        0.0939
     27 C          65.6679   92.2239   15.9532 C.3     1  UNL1        0.1108
     28 N          65.4319   91.5699   14.6241 N.am    1  UNL1       -0.2753
     29 C          64.0833   90.9999   14.2976 C.2     1  UNL1        0.2462
     30 O          62.9708   91.0840   15.3002 O.2     1  UNL1       -0.2730
     31 C          66.5444   91.4858   13.6216 C.3     1  UNL1        0.1108
     32 C          67.8929   92.0558   13.9481 C.3     1  UNL1        0.0939
     33 C          63.5524   91.1858   11.7612 C.3     1  UNL1        0.1710
     34 O          64.6783   91.7246   10.9292 O.3     1  UNL1       -0.3515
     35 C          65.2484   93.0799   11.2263 C.3     1  UNL1        0.1421
     36 C          66.3500   93.6339   10.3722 C.3     1  UNL1        0.0274
     37 C          65.9389   95.0755   10.3197 C.3     1  UNL1        0.0025
     38 C          67.5943   93.6872    9.5362 C.3     1  UNL1        0.0025
     39 C          67.1435   92.3847   10.1280 C.3     1  UNL1        0.0025
@<TRIPOS>BOND
     1    24    25    1
     2    25    26    1
     3    26    27    1
     4    27    28    1
     5    28    29   am
     6    29    30    2
     7    29    23    1
     8    23    33    1
     9    33    34    1
    10    34    35    1
    11    35    36    1
    12    36    37    1
    13    36    38    1
    14    38    39    1
    15    23     1    1
    16     1     2   am
    17     2     3    2
    18     2     5    1
    19     5     6   ar
    20     6     7   ar
    21     7     8   ar
    22     8     9   ar
    23     9    10   ar
    24    10    11    1
    25    11    12    1
    26    12    13   ar
    27    13    14   ar
    28    14    15   ar
    29    15    19    1
    30    19    20    1
    31    19    21    1
    32    19    22    1
    33    15    16   ar
    34    16    17   ar
    35    17    18    1
    36    28    31    1
    37    31    32    1
    38    32    25    1
    39    39    36    1
    40    10     5   ar
    41    17    12   ar
    42     1     4    1
@<TRIPOS>MOLECULE
*****
 39 42 0 0 0
SMALL
GASTEIGER

@<TRIPOS>ATOM
      1 N          65.3333   90.1804   14.5217 N.am    1  UNL1       -0.2927
      2 C          65.6581   91.4880   15.1810 C.2     1  UNL1        0.2508
      3 O          64.5769   92.2735   15.8622 O.2     1  UNL1       -0.2700
      4 H          66.0429   89.6649   14.0746 H       1  UNL1        0.1502
      5 C          67.0641   92.0102   15.1590 C.ar    1  UNL1        0.1068
      6 C          67.7371   92.4065   16.4396 C.ar    1  UNL1        0.0108
      7 C          69.1430   92.9287   16.4177 C.ar    1  UNL1        0.0210
      8 C          69.8760   93.0546   15.1151 C.ar    1  UNL1        0.1021
      9 N          69.2031   92.6583   13.8344 N.ar    1  UNL1       -0.2097
     10 C          67.7971   92.1361   13.8564 C.ar    1  UNL1        0.2340
     11 O          67.1242   91.7398   12.5757 O.3     1  UNL1       -0.4351
     12 C          66.9190   92.7551   11.4909 C.ar    1  UNL1        0.1576
     13 C          65.9116   93.8519   11.6708 C.ar    1  UNL1        0.0384
     14 C          65.7065   94.8673   10.5859 C.ar    1  UNL1        0.0070
     15 C          66.5087   94.7859    9.3211 C.ar    1  UNL1        0.0725
     16 C          67.5161   93.6892    9.1411 C.ar    1  UNL1        0.0183
     17 C          67.7212   92.6738   10.2260 C.ar    1  UNL1        0.0921
     18 CL         68.7286   91.5771   10.0461 Cl      1  UNL1       -0.0791
     19 C          66.3036   95.8012    8.2362 C.3     1  UNL1        0.4186
     20 F          66.0984   96.8166    7.1513 F       1  UNL1       -0.1659
     21 F          65.5260   96.6611    9.1880 F       1  UNL1       -0.1659
     22 F          67.0812   94.9414    7.2845 F       1  UNL1       -0.1659
     23 C          63.9272   89.6582   14.5437 C.3     1  UNL1        0.1789
     24 C          63.8851   82.7871   14.7356 C.3     1  UNL1        0.0897
     25 N          63.7880   84.2675   14.9572 N.3     1  UNL1       -0.2686
     26 C          63.2603   84.7982   16.2571 C.3     1  UNL1        0.0939
     27 C          63.1632   86.2786   16.4787 C.3     1  UNL1        0.1108
     28 N          63.5938   87.2282   15.4004 N.am    1  UNL1       -0.2753
     29 C          63.4967   88.7086   15.6220 C.2     1  UNL1        0.2462
     30 O          62.9690   89.2393   16.9219 O.2     1  UNL1       -0.2730
     31 C          64.1215   86.6975   14.1005 C.3     1  UNL1        0.1108
     32 C          64.2186   85.2171   13.8789 C.3     1  UNL1        0.0939
     33 C          62.9518   90.0856   13.4874 C.3     1  UNL1        0.1710
     34 O          62.2312   89.0544   12.6705 O.3     1  UNL1       -0.3515
     35 C          62.3969   89.0284   11.1799 C.3     1  UNL1        0.1421
     36 C          61.6664   88.0051   10.3618 C.3     1  UNL1        0.0274
     37 C          62.2425   86.7478   10.9425 C.3     1  UNL1        0.0025
     38 C          60.7358   87.4186    9.3420 C.3     1  UNL1        0.0025
     39 C          60.8367   88.9071    9.4970 C.3     1  UNL1        0.0025
@<TRIPOS>BOND
     1    24    25    1
     2    25    26    1
     3    26    27    1
     4    27    28    1
     5    28    29   am
     6    29    30    2
     7    29    23    1
     8    23    33    1
     9    33    34    1
    10    34    35    1
    11    35    36    1
    12    36    37    1
    13    36    38    1
    14    38    39    1
    15    23     1    1
    16     1     2   am
    17     2     3    2
    18     2     5    1
    19     5     6   ar
    20     6     7   ar
    21     7     8   ar
    22     8     9   ar
    23     9    10   ar
    24    10    11    1
    25    11    12    1
    26    12    13   ar
    27    13    14   ar
    28    14    15   ar
    29    15    19    1
    30    19    20    1
    31    19    21    1
    32    19    22    1
    33    15    16   ar
    34    16    17   ar
    35    17    18    1
    36    28    31    1
    37    31    32    1
    38    32    25    1
    39    39    36    1
    40    10     5   ar
    41    17    12   ar
    42     1     4    1
@<TRIPOS>MOLECULE
*****
 39 42 0 0 0
SMALL
GASTEIGER

@<TRIPOS>ATOM
      1 N          63.1838   89.0053   13.1153 N.am    1  UNL1       -0.2927
      2 C          63.2227   89.3823   14.5666 C.2     1  UNL1        0.2508
      3 O          63.2378   90.8281   14.9658 O.2     1  UNL1       -0.2700
      4 H          63.1738   88.0563   12.8533 H       1  UNL1        0.1502
      5 C          63.2464   88.3134   15.6188 C.ar    1  UNL1        0.1068
      6 C          62.8795   88.6464   17.0346 C.ar    1  UNL1        0.0108
      7 C          62.9033   87.5776   18.0868 C.ar    1  UNL1        0.0210
      8 C          63.2939   86.1758   17.7232 C.ar    1  UNL1        0.1021
      9 N          63.6609   85.8428   16.3074 N.ar    1  UNL1       -0.2097
     10 C          63.6371   86.9116   15.2552 C.ar    1  UNL1        0.2340
     11 O          64.0041   86.5786   13.8394 O.3     1  UNL1       -0.4351
     12 C          63.7498   85.2011   13.3029 C.ar    1  UNL1        0.1576
     13 C          62.5404   84.9377   12.4555 C.ar    1  UNL1        0.0384
     14 C          62.2862   83.5602   11.9190 C.ar    1  UNL1        0.0070
     15 C          63.2412   82.4461   12.2299 C.ar    1  UNL1        0.0725
     16 C          64.4505   82.7095   13.0773 C.ar    1  UNL1        0.0183
     17 C          64.7048   84.0870   13.6138 C.ar    1  UNL1        0.0921
     18 CL         65.9142   84.3504   14.4612 Cl      1  UNL1       -0.0791
     19 C          62.9869   81.0687   11.6934 C.3     1  UNL1        0.4186
     20 F          62.7327   79.6911   11.1568 F       1  UNL1       -0.1659
     21 F          63.3886   81.5282   10.3232 F       1  UNL1       -0.1659
     22 F          62.5853   80.6091   13.0635 F       1  UNL1       -0.1659
     23 C          63.1600   90.0742   12.0631 C.3     1  UNL1        0.1789
     24 C          60.3216   85.7830    7.5047 C.3     1  UNL1        0.0897
     25 N          60.7302   86.8955    8.4242 N.3     1  UNL1       -0.2686
     26 C          59.9351   88.1668    8.4629 C.3     1  UNL1        0.0939
     27 C          60.3438   89.2793    9.3823 C.3     1  UNL1        0.1108
     28 N          61.5476   89.1205   10.2630 N.am    1  UNL1       -0.2753
     29 C          61.9562   90.2330   11.1824 C.2     1  UNL1        0.2462
     30 O          61.1611   91.5043   11.2212 O.2     1  UNL1       -0.2730
     31 C          62.3427   87.8492   10.2243 C.3     1  UNL1        0.1108
     32 C          61.9340   86.7367    9.3049 C.3     1  UNL1        0.0939
     33 C          64.3400   90.9842   11.8917 C.3     1  UNL1        0.1710
     34 O          64.5093   92.1708   12.7936 O.3     1  UNL1       -0.3515
     35 C          65.8563   92.8141   12.9418 C.3     1  UNL1        0.1421
     36 C          66.8565   92.2467   13.9048 C.3     1  UNL1        0.0274
     37 C          67.9348   91.8338   12.9472 C.3     1  UNL1        0.0025
     38 C          67.4824   91.8226   15.2004 C.3     1  UNL1        0.0025
     39 C          66.1257   92.4625   15.1968 C.3     1  UNL1        0.0025
@<TRIPOS>BOND
     1    24    25    1
     2    25    26    1
     3    26    27    1
     4    27    28    1
     5    28    29   am
     6    29    30    2
     7    29    23    1
     8    23    33    1
     9    33    34    1
    10    34    35    1
    11    35    36    1
    12    36    37    1
    13    36    38    1
    14    38    39    1
    15    23     1    1
    16     1     2   am
    17     2     3    2
    18     2     5    1
    19     5     6   ar
    20     6     7   ar
    21     7     8   ar
    22     8     9   ar
    23     9    10   ar
    24    10    11    1
    25    11    12    1
    26    12    13   ar
    27    13    14   ar
    28    14    15   ar
    29    15    19    1
    30    19    20    1
    31    19    21    1
    32    19    22    1
    33    15    16   ar
    34    16    17   ar
    35    17    18    1
    36    28    31    1
    37    31    32    1
    38    32    25    1
    39    39    36    1
    40    10     5   ar
    41    17    12   ar
    42     1     4    1
@<TRIPOS>MOLECULE
*****
 39 42 0 0 0
SMALL
GASTEIGER

@<TRIPOS>ATOM
      1 N          63.9163   89.3028   13.8168 N.am    1  UNL1       -0.2927
      2 C          63.4357   89.4067   15.2339 C.2     1  UNL1        0.2508
      3 O          63.0856   90.7463   15.8107 O.2     1  UNL1       -0.2700
      4 H          64.1461   88.4235   13.4382 H       1  UNL1        0.1502
      5 C          63.3053   88.1710   16.0742 C.ar    1  UNL1        0.1068
      6 C          62.9154   88.2837   17.5182 C.ar    1  UNL1        0.0108
      7 C          62.7850   87.0481   18.3585 C.ar    1  UNL1        0.0210
      8 C          63.0444   85.6997   17.7548 C.ar    1  UNL1        0.1021
      9 N          63.4343   85.5870   16.3107 N.ar    1  UNL1       -0.2097
     10 C          63.5647   86.8226   15.4704 C.ar    1  UNL1        0.2340
     11 O          63.9546   86.7099   14.0263 O.3     1  UNL1       -0.4351
     12 C          63.7547   85.4160   13.2943 C.ar    1  UNL1        0.1576
     13 C          62.6199   85.2707   12.3242 C.ar    1  UNL1        0.0384
     14 C          62.4200   83.9769   11.5921 C.ar    1  UNL1        0.0070
     15 C          63.3548   82.8282   11.8302 C.ar    1  UNL1        0.0725
     16 C          64.4896   82.9735   12.8003 C.ar    1  UNL1        0.0183
     17 C          64.6896   84.2674   13.5324 C.ar    1  UNL1        0.0921
     18 CL         65.8244   84.4126   14.5025 Cl      1  UNL1       -0.0791
     19 C          63.1550   81.5344   11.0982 C.3     1  UNL1        0.4186
     20 F          62.9551   80.2404   10.3661 F       1  UNL1       -0.1659
     21 F          64.0570   82.0159   10.0008 F       1  UNL1       -0.1659
     22 F          62.2529   81.0529   12.1956 F       1  UNL1       -0.1659
     23 C          64.0467   90.5385   12.9765 C.3     1  UNL1        0.1789
     24 C          66.5929   95.8360    9.4123 C.3     1  UNL1        0.0897
     25 N          66.1969   94.7816   10.4029 N.3     1  UNL1       -0.2686
     26 C          66.7630   94.8068   11.7918 C.3     1  UNL1        0.0939
     27 C          66.3669   93.7523   12.7823 C.3     1  UNL1        0.1108
     28 N          65.4048   92.6726   12.3841 N.am    1  UNL1       -0.2753
     29 C          65.0088   91.6182   13.3747 C.2     1  UNL1        0.2462
     30 O          65.5749   91.6434   14.7635 O.2     1  UNL1       -0.2730
     31 C          64.8388   92.6474   10.9953 C.3     1  UNL1        0.1108
     32 C          65.2348   93.7019   10.0047 C.3     1  UNL1        0.0939
     33 C          63.2150   90.6945   11.7379 C.3     1  UNL1        0.1710
     34 O          62.1400   89.6959   11.4257 O.3     1  UNL1       -0.3515
     35 C          62.4352   88.5330   10.5254 C.3     1  UNL1        0.1421
     36 C          61.3229   87.6350   10.0711 C.3     1  UNL1        0.0274
     37 C          60.2007   88.1633   10.9147 C.3     1  UNL1        0.0025
     38 C          60.6004   86.5536    9.3238 C.3     1  UNL1        0.0025
     39 C          62.0588   86.7950    9.0698 C.3     1  UNL1        0.0025
@<TRIPOS>BOND
     1    24    25    1
     2    25    26    1
     3    26    27    1
     4    27    28    1
     5    28    29   am
     6    29    30    2
     7    29    23    1
     8    23    33    1
     9    33    34    1
    10    34    35    1
    11    35    36    1
    12    36    37    1
    13    36    38    1
    14    38    39    1
    15    23     1    1
    16     1     2   am
    17     2     3    2
    18     2     5    1
    19     5     6   ar
    20     6     7   ar
    21     7     8   ar
    22     8     9   ar
    23     9    10   ar
    24    10    11    1
    25    11    12    1
    26    12    13   ar
    27    13    14   ar
    28    14    15   ar
    29    15    19    1
    30    19    20    1
    31    19    21    1
    32    19    22    1
    33    15    16   ar
    34    16    17   ar
    35    17    18    1
    36    28    31    1
    37    31    32    1
    38    32    25    1
    39    39    36    1
    40    10     5   ar
    41    17    12   ar
    42     1     4    1
@<TRIPOS>MOLECULE
*****
 39 42 0 0 0
SMALL
GASTEIGER

@<TRIPOS>ATOM
      1 N          64.2496   88.6343   13.4464 N.am    1  UNL1       -0.2927
      2 C          63.8752   87.6974   14.5564 C.2     1  UNL1        0.2508
      3 O          63.4888   88.2423   15.8994 O.2     1  UNL1       -0.2700
      4 H          64.5032   88.2767   12.5649 H       1  UNL1        0.1502
      5 C          63.8872   86.2156   14.3233 C.ar    1  UNL1        0.1068
      6 C          64.5495   85.3058   15.3150 C.ar    1  UNL1        0.0108
      7 C          64.5615   83.8241   15.0820 C.ar    1  UNL1        0.0210
      8 C          63.9112   83.2522   13.8572 C.ar    1  UNL1        0.1021
      9 N          63.2489   84.1621   12.8655 N.ar    1  UNL1       -0.2097
     10 C          63.2369   85.6438   13.0985 C.ar    1  UNL1        0.2340
     11 O          62.5746   86.5537   12.1068 O.3     1  UNL1       -0.4351
     12 C          62.3545   86.0927   10.6965 C.ar    1  UNL1        0.1576
     13 C          63.2996   85.1089   10.0728 C.ar    1  UNL1        0.0384
     14 C          63.0795   84.6479    8.6625 C.ar    1  UNL1        0.0070
     15 C          61.9142   85.1707    7.8758 C.ar    1  UNL1        0.0725
     16 C          60.9691   86.1545    8.4994 C.ar    1  UNL1        0.0183
     17 C          61.1892   86.6155    9.9098 C.ar    1  UNL1        0.0921
     18 CL         60.2441   87.5992   10.5334 Cl      1  UNL1       -0.0791
     19 C          61.6941   84.7098    6.4655 C.3     1  UNL1        0.4186
     20 F          61.4740   84.2488    5.0551 F       1  UNL1       -0.1659
     21 F          63.1771   84.5970    6.2709 F       1  UNL1       -0.1659
     22 F          60.2111   84.8226    6.6601 F       1  UNL1       -0.1659
     23 C          64.2376   90.1161   13.6795 C.3     1  UNL1        0.1789
     24 C          68.2585   93.9966    9.6764 C.3     1  UNL1        0.0897
     25 N          67.1681   93.2598   10.3962 N.3     1  UNL1       -0.2686
     26 C          65.7369   93.4562    9.9923 C.3     1  UNL1        0.0939
     27 C          64.6465   92.7194   10.7121 C.3     1  UNL1        0.1108
     28 N          64.9873   91.7861   11.8359 N.am    1  UNL1       -0.2753
     29 C          63.8969   91.0493   12.5557 C.2     1  UNL1        0.2462
     30 O          62.4657   91.2458   12.1518 O.2     1  UNL1       -0.2730
     31 C          66.4184   91.5897   12.2398 C.3     1  UNL1        0.1108
     32 C          67.5088   92.3265   11.5200 C.3     1  UNL1        0.0939
     33 C          64.5664   90.6645   15.0364 C.3     1  UNL1        0.1710
     34 O          64.9172   92.1144   15.1944 O.3     1  UNL1       -0.3515
     35 C          66.0289   92.5208   16.1158 C.3     1  UNL1        0.1421
     36 C          67.3309   93.0068   15.5515 C.3     1  UNL1        0.0274
     37 C          66.8246   93.9882   14.5362 C.3     1  UNL1        0.0025
     38 C          68.8088   93.1521   15.3397 C.3     1  UNL1        0.0025
     39 C          68.2894   92.1944   16.3707 C.3     1  UNL1        0.0025
@<TRIPOS>BOND
     1    24    25    1
     2    25    26    1
     3    26    27    1
     4    27    28    1
     5    28    29   am
     6    29    30    2
     7    29    23    1
     8    23    33    1
     9    33    34    1
    10    34    35    1
    11    35    36    1
    12    36    37    1
    13    36    38    1
    14    38    39    1
    15    23     1    1
    16     1     2   am
    17     2     3    2
    18     2     5    1
    19     5     6   ar
    20     6     7   ar
    21     7     8   ar
    22     8     9   ar
    23     9    10   ar
    24    10    11    1
    25    11    12    1
    26    12    13   ar
    27    13    14   ar
    28    14    15   ar
    29    15    19    1
    30    19    20    1
    31    19    21    1
    32    19    22    1
    33    15    16   ar
    34    16    17   ar
    35    17    18    1
    36    28    31    1
    37    31    32    1
    38    32    25    1
    39    39    36    1
    40    10     5   ar
    41    17    12   ar
    42     1     4    1
@<TRIPOS>MOLECULE
*****
 39 42 0 0 0
SMALL
GASTEIGER

@<TRIPOS>ATOM
      1 N          63.5871   89.6977   12.4706 N.am    1  UNL1       -0.2927
      2 C          62.1203   89.4080   12.3504 C.2     1  UNL1        0.2508
      3 O          61.1721   89.8860   13.4098 O.2     1  UNL1       -0.2700
      4 H          64.2095   89.3839   11.7753 H       1  UNL1        0.1502
      5 C          61.6016   88.6403   11.1706 C.ar    1  UNL1        0.1068
      6 C          60.6519   89.2926   10.2101 C.ar    1  UNL1        0.0108
      7 C          60.1332   88.5250    9.0304 C.ar    1  UNL1        0.0210
      8 C          60.5643   87.1052    8.8112 C.ar    1  UNL1        0.1021
      9 N          61.5140   86.4529    9.7717 N.ar    1  UNL1       -0.2097
     10 C          62.0327   87.2205   10.9514 C.ar    1  UNL1        0.2340
     11 O          62.9824   86.5682   11.9119 O.3     1  UNL1       -0.4351
     12 C          62.8122   85.1213   12.2689 C.ar    1  UNL1        0.1576
     13 C          62.3459   84.7375   13.6420 C.ar    1  UNL1        0.0384
     14 C          62.1756   83.2906   13.9991 C.ar    1  UNL1        0.0070
     15 C          62.4716   82.2275   12.9831 C.ar    1  UNL1        0.0725
     16 C          62.9379   82.6113   11.6101 C.ar    1  UNL1        0.0183
     17 C          63.1082   84.0582   11.2530 C.ar    1  UNL1        0.0921
     18 CL         63.5744   84.4420    9.8799 Cl      1  UNL1       -0.0791
     19 C          62.3013   80.7806   13.3402 C.3     1  UNL1        0.4186
     20 F          62.1310   79.3337   13.6973 F       1  UNL1       -0.1659
     21 F          60.8387   81.0118   13.5794 F       1  UNL1       -0.1659
     22 F          63.7639   80.5495   13.1009 F       1  UNL1       -0.1659
     23 C          64.1058   90.4653   13.6504 C.3     1  UNL1        0.1789
     24 C          66.6243   94.8022    8.9494 C.3     1  UNL1        0.0897
     25 N          66.3261   93.8922   10.1040 N.3     1  UNL1       -0.2686
     26 C          67.3535   93.6791   11.1758 C.3     1  UNL1        0.0939
     27 C          67.0553   92.7692   12.3304 C.3     1  UNL1        0.1108
     28 N          65.7297   92.0722   12.4131 N.am    1  UNL1       -0.2753
     29 C          65.4315   91.1623   13.5677 C.2     1  UNL1        0.2462
     30 O          66.4589   90.9492   14.6395 O.2     1  UNL1       -0.2730
     31 C          64.7022   92.2853   11.3413 C.3     1  UNL1        0.1108
     32 C          65.0004   93.1953   10.1867 C.3     1  UNL1        0.0939
     33 C          63.2988   90.5360   14.9128 C.3     1  UNL1        0.1710
     34 O          63.7272   89.7577   16.1214 O.3     1  UNL1       -0.3515
     35 C          62.8553   88.6594   16.6540 C.3     1  UNL1        0.1421
     36 C          63.3054   87.2317   16.5592 C.3     1  UNL1        0.0274
     37 C          64.1503   87.3067   15.3220 C.3     1  UNL1        0.0025
     38 C          63.4620   85.7779   16.8940 C.3     1  UNL1        0.0025
     39 C          62.6168   86.6610   17.7633 C.3     1  UNL1        0.0025
@<TRIPOS>BOND
     1    24    25    1
     2    25    26    1
     3    26    27    1
     4    27    28    1
     5    28    29   am
     6    29    30    2
     7    29    23    1
     8    23    33    1
     9    33    34    1
    10    34    35    1
    11    35    36    1
    12    36    37    1
    13    36    38    1
    14    38    39    1
    15    23     1    1
    16     1     2   am
    17     2     3    2
    18     2     5    1
    19     5     6   ar
    20     6     7   ar
    21     7     8   ar
    22     8     9   ar
    23     9    10   ar
    24    10    11    1
    25    11    12    1
    26    12    13   ar
    27    13    14   ar
    28    14    15   ar
    29    15    19    1
    30    19    20    1
    31    19    21    1
    32    19    22    1
    33    15    16   ar
    34    16    17   ar
    35    17    18    1
    36    28    31    1
    37    31    32    1
    38    32    25    1
    39    39    36    1
    40    10     5   ar
    41    17    12   ar
    42     1     4    1
