@<TRIPOS>MOLECULE
*****
 26 29 0 0 0
SMALL
GASTEIGER

@<TRIPOS>ATOM
      1 C          63.2121   89.7485   14.2887 C.3     1  UNL1        0.1363
      2 N          63.9495   90.6704   13.3633 N.ar    1  UNL1       -0.2667
      3 C          63.4944   90.8288   11.9428 C.ar    1  UNL1        0.2036
      4 N          64.2318   91.7508   11.0174 N.ar    1  UNL1       -0.2148
      5 C          65.4243   92.5142   11.5125 C.ar    1  UNL1        0.0890
      6 C          65.8794   92.3557   12.9329 C.ar    1  UNL1        0.0800
      7 C          65.1420   91.4338   13.8583 C.ar    1  UNL1        0.2645
      8 O          65.5972   91.2753   15.2789 O.2     1  UNL1       -0.2668
      9 N          62.3019   90.0654   11.4477 N.pl3   1  UNL1       -0.2740
     10 C          60.9265   90.4350   11.9183 C.3     1  UNL1        0.1257
     11 C          59.7339   89.6716   11.4232 C.3     1  UNL1        0.1640
     12 O          59.9169   88.5385   10.4575 O.3     1  UNL1       -0.3483
     13 C          61.2924   88.1689    9.9868 C.3     1  UNL1        0.1572
     14 C          62.4848   88.9323   10.4820 C.3     1  UNL1        0.1276
     15 C          61.4754   87.0358    9.0211 C.ar    1  UNL1        0.0062
     16 C          62.7802   86.2976    8.9696 C.ar    1  UNL1       -0.0019
     17 C          62.9631   85.1645    8.0038 C.ar    1  UNL1       -0.0002
     18 C          61.8413   84.7697    7.0896 C.ar    1  UNL1       -0.0000
     19 C          60.5366   85.5079    7.1412 C.ar    1  UNL1       -0.0002
     20 C          60.3536   86.6410    8.1069 C.ar    1  UNL1       -0.0019
     21 C          66.1617   93.4361   10.5871 C.ar    1  UNL1        0.0210
     22 C          67.3087   92.9191    9.7704 C.ar    1  UNL1        0.0222
     23 C          68.0461   93.8410    8.8450 C.ar    1  UNL1        0.0989
     24 N          67.6364   95.2799    8.7363 N.ar    1  UNL1       -0.2423
     25 C          66.4894   95.7968    9.5530 C.ar    1  UNL1        0.0989
     26 C          65.7520   94.8749   10.4784 C.ar    1  UNL1        0.0222
@<TRIPOS>BOND
     1     1     2    1
     2     2     3   ar
     3     3     9    1
     4     9    10    1
     5    10    11    1
     6    11    12    1
     7    12    13    1
     8    13    15    1
     9    15    16   ar
    10    16    17   ar
    11    17    18   ar
    12    18    19   ar
    13    19    20   ar
    14    13    14    1
    15     3     4   ar
    16     4     5   ar
    17     5    21    1
    18    21    22   ar
    19    22    23   ar
    20    23    24   ar
    21    24    25   ar
    22    25    26   ar
    23     5     6   ar
    24     6     7   ar
    25     7     8    2
    26     7     2   ar
    27    14     9    1
    28    26    21   ar
    29    20    15   ar
@<TRIPOS>MOLECULE
*****
 26 29 0 0 0
SMALL
GASTEIGER

@<TRIPOS>ATOM
      1 C          63.2927   90.0637   14.9649 C.3     1  UNL1        0.1363
      2 N          64.0166   90.8789   13.9346 N.ar    1  UNL1       -0.2667
      3 C          63.7335   90.6679   12.4768 C.ar    1  UNL1        0.2036
      4 N          64.4574   91.4831   11.4465 N.ar    1  UNL1       -0.2148
      5 C          65.4644   92.5093   11.8741 C.ar    1  UNL1        0.0890
      6 C          65.7475   92.7203   13.3319 C.ar    1  UNL1        0.0800
      7 C          65.0236   91.9051   14.3622 C.ar    1  UNL1        0.2645
      8 O          65.3068   92.1161   15.8201 O.2     1  UNL1       -0.2668
      9 N          62.7265   89.6417   12.0492 N.pl3   1  UNL1       -0.2740
     10 C          61.3049   90.0467   11.7943 C.3     1  UNL1        0.1257
     11 C          60.2978   89.0204   11.3666 C.3     1  UNL1        0.1640
     12 O          60.7125   87.5893   11.1939 O.3     1  UNL1       -0.3483
     13 C          62.1342   87.1843   11.4489 C.3     1  UNL1        0.1572
     14 C          63.1411   88.2105   11.8765 C.3     1  UNL1        0.1276
     15 C          62.5488   85.7531   11.2762 C.ar    1  UNL1        0.0062
     16 C          62.9105   85.2361    9.9153 C.ar    1  UNL1       -0.0019
     17 C          63.3252   83.8049    9.7426 C.ar    1  UNL1       -0.0002
     18 C          63.3781   82.8908   10.9308 C.ar    1  UNL1       -0.0000
     19 C          63.0163   83.4079   12.2915 C.ar    1  UNL1       -0.0002
     20 C          62.6017   84.8390   12.4642 C.ar    1  UNL1       -0.0019
     21 C          66.1883   93.3245   10.8438 C.ar    1  UNL1        0.0210
     22 C          65.7836   94.7469   10.5930 C.ar    1  UNL1        0.0222
     23 C          66.5075   95.5621    9.5627 C.ar    1  UNL1        0.0989
     24 N          67.6361   94.9549    8.7833 N.ar    1  UNL1       -0.2423
     25 C          68.0408   93.5325    9.0341 C.ar    1  UNL1        0.0989
     26 C          67.3169   92.7173   10.0644 C.ar    1  UNL1        0.0222
@<TRIPOS>BOND
     1     1     2    1
     2     2     3   ar
     3     3     9    1
     4     9    10    1
     5    10    11    1
     6    11    12    1
     7    12    13    1
     8    13    15    1
     9    15    16   ar
    10    16    17   ar
    11    17    18   ar
    12    18    19   ar
    13    19    20   ar
    14    13    14    1
    15     3     4   ar
    16     4     5   ar
    17     5    21    1
    18    21    22   ar
    19    22    23   ar
    20    23    24   ar
    21    24    25   ar
    22    25    26   ar
    23     5     6   ar
    24     6     7   ar
    25     7     8    2
    26     7     2   ar
    27    14     9    1
    28    26    21   ar
    29    20    15   ar
@<TRIPOS>MOLECULE
*****
 26 29 0 0 0
SMALL
GASTEIGER

@<TRIPOS>ATOM
      1 C          61.2631   90.5156   10.6715 C.3     1  UNL1        0.1363
      2 N          61.6508   89.1102   11.0243 N.ar    1  UNL1       -0.2667
      3 C          62.7884   88.8609   11.9696 C.ar    1  UNL1        0.2036
      4 N          63.1761   87.4554   12.3224 N.ar    1  UNL1       -0.2148
      5 C          62.4262   86.2994   11.7298 C.ar    1  UNL1        0.0890
      6 C          61.2886   86.5487   10.7845 C.ar    1  UNL1        0.0800
      7 C          60.9009   87.9541   10.4317 C.ar    1  UNL1        0.2645
      8 O          59.7632   88.2035    9.4864 O.2     1  UNL1       -0.2668
      9 N          63.5383   90.0170   12.5622 N.pl3   1  UNL1       -0.2740
     10 C          63.4791   90.2714   14.0392 C.3     1  UNL1        0.1257
     11 C          64.2291   91.4275   14.6318 C.3     1  UNL1        0.1640
     12 O          65.0382   92.3291   13.7473 O.3     1  UNL1       -0.3483
     13 C          65.0973   92.0746   12.2702 C.3     1  UNL1        0.1572
     14 C          64.3474   90.9186   11.6776 C.3     1  UNL1        0.1276
     15 C          65.9064   92.9763   11.3856 C.ar    1  UNL1        0.0062
     16 C          65.7953   94.4653   11.5299 C.ar    1  UNL1       -0.0019
     17 C          66.6044   95.3669   10.6454 C.ar    1  UNL1       -0.0002
     18 C          67.5246   94.7796    9.6165 C.ar    1  UNL1       -0.0000
     19 C          67.6356   93.2907    9.4723 C.ar    1  UNL1       -0.0002
     20 C          66.8265   92.3891   10.3568 C.ar    1  UNL1       -0.0019
     21 C          62.8139   84.8939   12.0826 C.ar    1  UNL1        0.0210
     22 C          63.2160   83.9334   11.0030 C.ar    1  UNL1        0.0222
     23 C          63.6037   82.5279   11.3557 C.ar    1  UNL1        0.0989
     24 N          63.5894   82.0831   12.7881 N.ar    1  UNL1       -0.2423
     25 C          63.1874   83.0436   13.8678 C.ar    1  UNL1        0.0989
     26 C          62.7996   84.4491   13.5150 C.ar    1  UNL1        0.0222
@<TRIPOS>BOND
     1     1     2    1
     2     2     3   ar
     3     3     9    1
     4     9    10    1
     5    10    11    1
     6    11    12    1
     7    12    13    1
     8    13    15    1
     9    15    16   ar
    10    16    17   ar
    11    17    18   ar
    12    18    19   ar
    13    19    20   ar
    14    13    14    1
    15     3     4   ar
    16     4     5   ar
    17     5    21    1
    18    21    22   ar
    19    22    23   ar
    20    23    24   ar
    21    24    25   ar
    22    25    26   ar
    23     5     6   ar
    24     6     7   ar
    25     7     8    2
    26     7     2   ar
    27    14     9    1
    28    26    21   ar
    29    20    15   ar
@<TRIPOS>MOLECULE
*****
 26 29 0 0 0
SMALL
GASTEIGER

@<TRIPOS>ATOM
      1 C          59.8177   87.9202    9.9191 C.3     1  UNL1        0.1363
      2 N          60.8456   88.6872   10.6971 N.ar    1  UNL1       -0.2667
      3 C          62.1734   88.0615   11.0057 C.ar    1  UNL1        0.2036
      4 N          63.2013   88.8285   11.7837 N.ar    1  UNL1       -0.2148
      5 C          62.9013   90.2212   12.2529 C.ar    1  UNL1        0.0890
      6 C          61.5735   90.8469   11.9443 C.ar    1  UNL1        0.0800
      7 C          60.5456   90.0799   11.1664 C.ar    1  UNL1        0.2645
      8 O          59.2177   90.7057   10.8577 O.2     1  UNL1       -0.2668
      9 N          62.4734   86.6687   10.5364 N.pl3   1  UNL1       -0.2740
     10 C          62.8122   86.4190    9.0967 C.3     1  UNL1        0.1257
     11 C          63.1123   85.0262    8.6275 C.3     1  UNL1        0.1640
     12 O          63.0735   83.8831    9.5980 O.3     1  UNL1       -0.3483
     13 C          62.7346   84.1328   11.0377 C.3     1  UNL1        0.1572
     14 C          62.4346   85.5256   11.5070 C.3     1  UNL1        0.1276
     15 C          62.6958   82.9898   12.0082 C.ar    1  UNL1        0.0062
     16 C          62.5256   83.2563   13.4746 C.ar    1  UNL1       -0.0019
     17 C          62.4868   82.1132   14.4451 C.ar    1  UNL1       -0.0002
     18 C          62.6182   80.7036   13.9492 C.ar    1  UNL1       -0.0000
     19 C          62.7884   80.4371   12.4830 C.ar    1  UNL1       -0.0002
     20 C          62.8272   81.5802   11.5125 C.ar    1  UNL1       -0.0019
     21 C          63.9292   90.9882   13.0309 C.ar    1  UNL1        0.0210
     22 C          64.0602   90.7788   14.5104 C.ar    1  UNL1        0.0222
     23 C          65.0881   91.5458   15.2883 C.ar    1  UNL1        0.0989
     24 N          65.9849   92.5223   14.5867 N.ar    1  UNL1       -0.2423
     25 C          65.8538   92.7317   13.1073 C.ar    1  UNL1        0.0989
     26 C          64.8260   91.9647   12.3293 C.ar    1  UNL1        0.0222
@<TRIPOS>BOND
     1     1     2    1
     2     2     3   ar
     3     3     9    1
     4     9    10    1
     5    10    11    1
     6    11    12    1
     7    12    13    1
     8    13    15    1
     9    15    16   ar
    10    16    17   ar
    11    17    18   ar
    12    18    19   ar
    13    19    20   ar
    14    13    14    1
    15     3     4   ar
    16     4     5   ar
    17     5    21    1
    18    21    22   ar
    19    22    23   ar
    20    23    24   ar
    21    24    25   ar
    22    25    26   ar
    23     5     6   ar
    24     6     7   ar
    25     7     8    2
    26     7     2   ar
    27    14     9    1
    28    26    21   ar
    29    20    15   ar
@<TRIPOS>MOLECULE
*****
 26 29 0 0 0
SMALL
GASTEIGER

@<TRIPOS>ATOM
      1 C          63.1657   88.9193   17.0657 C.3     1  UNL1        0.1363
      2 N          63.2224   87.6343   16.2939 N.ar    1  UNL1       -0.2667
      3 C          63.6528   87.6409   14.8570 C.ar    1  UNL1        0.2036
      4 N          63.7095   86.3559   14.0852 N.ar    1  UNL1       -0.2148
      5 C          63.3357   85.0644   14.7502 C.ar    1  UNL1        0.0890
      6 C          62.9053   85.0579   16.1871 C.ar    1  UNL1        0.0800
      7 C          62.8486   86.3429   16.9589 C.ar    1  UNL1        0.2645
      8 O          62.4181   86.3363   18.3958 O.2     1  UNL1       -0.2668
      9 N          64.0266   88.9324   14.1919 N.pl3   1  UNL1       -0.2740
     10 C          63.2369   89.4266   13.0163 C.3     1  UNL1        0.1257
     11 C          63.6107   90.7182   12.3512 C.3     1  UNL1        0.1640
     12 O          64.7743   91.5154   12.8617 O.3     1  UNL1       -0.3483
     13 C          65.5641   91.0210   14.0373 C.3     1  UNL1        0.1572
     14 C          65.1902   89.7296   14.7023 C.3     1  UNL1        0.1276
     15 C          66.7276   91.8182   14.5478 C.ar    1  UNL1        0.0062
     16 C          66.5740   92.6686   15.7739 C.ar    1  UNL1       -0.0019
     17 C          67.7375   93.4657   16.2844 C.ar    1  UNL1       -0.0002
     18 C          69.0548   93.4125   15.5687 C.ar    1  UNL1       -0.0000
     19 C          69.2084   92.5622   14.3426 C.ar    1  UNL1       -0.0002
     20 C          68.0448   91.7650   13.8322 C.ar    1  UNL1       -0.0019
     21 C          63.3924   83.7795   13.9784 C.ar    1  UNL1        0.0210
     22 C          62.5834   82.5988   14.4271 C.ar    1  UNL1        0.0222
     23 C          62.6400   81.3138   13.6553 C.ar    1  UNL1        0.0989
     24 N          63.5057   81.2096   12.4348 N.ar    1  UNL1       -0.2423
     25 C          64.3148   82.3903   11.9861 C.ar    1  UNL1        0.0989
     26 C          64.2581   83.6752   12.7579 C.ar    1  UNL1        0.0222
@<TRIPOS>BOND
     1     1     2    1
     2     2     3   ar
     3     3     9    1
     4     9    10    1
     5    10    11    1
     6    11    12    1
     7    12    13    1
     8    13    15    1
     9    15    16   ar
    10    16    17   ar
    11    17    18   ar
    12    18    19   ar
    13    19    20   ar
    14    13    14    1
    15     3     4   ar
    16     4     5   ar
    17     5    21    1
    18    21    22   ar
    19    22    23   ar
    20    23    24   ar
    21    24    25   ar
    22    25    26   ar
    23     5     6   ar
    24     6     7   ar
    25     7     8    2
    26     7     2   ar
    27    14     9    1
    28    26    21   ar
    29    20    15   ar
@<TRIPOS>MOLECULE
*****
 26 29 0 0 0
SMALL
GASTEIGER

@<TRIPOS>ATOM
      1 C          63.5628   89.7816   15.6422 C.3     1  UNL1        0.1363
      2 N          64.2529   90.6486   14.6313 N.ar    1  UNL1       -0.2667
      3 C          64.2858   90.2383   13.1889 C.ar    1  UNL1        0.2036
      4 N          64.9759   91.1053   12.1780 N.ar    1  UNL1       -0.2148
      5 C          65.6332   92.3827   12.6095 C.ar    1  UNL1        0.0890
      6 C          65.6004   92.7931   14.0518 C.ar    1  UNL1        0.0800
      7 C          64.9102   91.9260   15.0627 C.ar    1  UNL1        0.2645
      8 O          64.8774   92.3364   16.5052 O.2     1  UNL1       -0.2668
      9 N          63.6285   88.9609   12.7574 N.pl3   1  UNL1       -0.2740
     10 C          63.8743   87.6949   13.5234 C.3     1  UNL1        0.1257
     11 C          63.2170   86.4174   13.0919 C.3     1  UNL1        0.1640
     12 O          62.3138   86.4061   11.8943 O.3     1  UNL1       -0.3483
     13 C          62.0680   87.6721   11.1282 C.3     1  UNL1        0.1572
     14 C          62.7253   88.9495   11.5598 C.3     1  UNL1        0.1276
     15 C          61.1649   87.6607    9.9306 C.ar    1  UNL1        0.0062
     16 C          60.6537   88.9523    9.3645 C.ar    1  UNL1       -0.0019
     17 C          59.7506   88.9409    8.1669 C.ar    1  UNL1       -0.0002
     18 C          59.3586   87.6379    7.5355 C.ar    1  UNL1       -0.0000
     19 C          59.8699   86.3464    8.1016 C.ar    1  UNL1       -0.0002
     20 C          60.7730   86.3578    9.2992 C.ar    1  UNL1       -0.0019
     21 C          66.3233   93.2498   11.5985 C.ar    1  UNL1        0.0210
     22 C          67.1929   92.6282   10.5462 C.ar    1  UNL1        0.0222
     23 C          67.8830   93.4952    9.5353 C.ar    1  UNL1        0.0989
     24 N          67.7036   94.9839    9.5767 N.ar    1  UNL1       -0.2423
     25 C          66.8341   95.6054   10.6291 C.ar    1  UNL1        0.0989
     26 C          66.1440   94.7384   11.6400 C.ar    1  UNL1        0.0222
@<TRIPOS>BOND
     1     1     2    1
     2     2     3   ar
     3     3     9    1
     4     9    10    1
     5    10    11    1
     6    11    12    1
     7    12    13    1
     8    13    15    1
     9    15    16   ar
    10    16    17   ar
    11    17    18   ar
    12    18    19   ar
    13    19    20   ar
    14    13    14    1
    15     3     4   ar
    16     4     5   ar
    17     5    21    1
    18    21    22   ar
    19    22    23   ar
    20    23    24   ar
    21    24    25   ar
    22    25    26   ar
    23     5     6   ar
    24     6     7   ar
    25     7     8    2
    26     7     2   ar
    27    14     9    1
    28    26    21   ar
    29    20    15   ar
@<TRIPOS>MOLECULE
*****
 26 29 0 0 0
SMALL
GASTEIGER

@<TRIPOS>ATOM
      1 C          64.5671   87.5909   14.5842 C.3     1  UNL1        0.1363
      2 N          63.6871   87.6165   13.3697 N.ar    1  UNL1       -0.2667
      3 C          63.4672   88.9026   12.6298 C.ar    1  UNL1        0.2036
      4 N          62.5872   88.9282   11.4154 N.ar    1  UNL1       -0.2148
      5 C          61.9271   87.6676   10.9408 C.ar    1  UNL1        0.0890
      6 C          62.1470   86.3815   11.6807 C.ar    1  UNL1        0.0800
      7 C          63.0270   86.3559   12.8951 C.ar    1  UNL1        0.2645
      8 O          63.2469   85.0697   13.6350 O.2     1  UNL1       -0.2668
      9 N          64.1273   90.1632   13.1044 N.pl3   1  UNL1       -0.2740
     10 C          64.1314   90.5036   14.5652 C.3     1  UNL1        0.1257
     11 C          64.7916   91.7642   15.0398 C.3     1  UNL1        0.1640
     12 O          65.4475   92.6844   14.0534 O.3     1  UNL1       -0.3483
     13 C          65.4434   92.3440   12.5925 C.3     1  UNL1        0.1572
     14 C          64.7833   91.0834   12.1180 C.3     1  UNL1        0.1276
     15 C          66.0994   93.2642   11.6062 C.ar    1  UNL1        0.0062
     16 C          66.8421   92.6987   10.4320 C.ar    1  UNL1       -0.0019
     17 C          67.4981   93.6189    9.4457 C.ar    1  UNL1       -0.0002
     18 C          67.4113   95.1047    9.6335 C.ar    1  UNL1       -0.0000
     19 C          66.6686   95.6701   10.8076 C.ar    1  UNL1       -0.0002
     20 C          66.0126   94.7499   11.7940 C.ar    1  UNL1       -0.0019
     21 C          61.0470   87.6932    9.7263 C.ar    1  UNL1        0.0210
     22 C          60.6021   89.0046    9.1500 C.ar    1  UNL1        0.0222
     23 C          59.7221   89.0302    7.9356 C.ar    1  UNL1        0.0989
     24 N          59.2870   87.7444    7.2974 N.ar    1  UNL1       -0.2423
     25 C          59.7319   86.4330    7.8737 C.ar    1  UNL1        0.0989
     26 C          60.6119   86.4074    9.0882 C.ar    1  UNL1        0.0222
@<TRIPOS>BOND
     1     1     2    1
     2     2     3   ar
     3     3     9    1
     4     9    10    1
     5    10    11    1
     6    11    12    1
     7    12    13    1
     8    13    15    1
     9    15    16   ar
    10    16    17   ar
    11    17    18   ar
    12    18    19   ar
    13    19    20   ar
    14    13    14    1
    15     3     4   ar
    16     4     5   ar
    17     5    21    1
    18    21    22   ar
    19    22    23   ar
    20    23    24   ar
    21    24    25   ar
    22    25    26   ar
    23     5     6   ar
    24     6     7   ar
    25     7     8    2
    26     7     2   ar
    27    14     9    1
    28    26    21   ar
    29    20    15   ar
@<TRIPOS>MOLECULE
*****
 26 29 0 0 0
SMALL
GASTEIGER

@<TRIPOS>ATOM
      1 C          61.2434   87.1794   11.2691 C.3     1  UNL1        0.1363
      2 N          62.1188   88.3900   11.4041 N.ar    1  UNL1       -0.2667
      3 C          63.2571   88.3872   12.3809 C.ar    1  UNL1        0.2036
      4 N          64.1325   89.5977   12.5159 N.ar    1  UNL1       -0.2148
      5 C          63.8696   90.8111   11.6741 C.ar    1  UNL1        0.0890
      6 C          62.7312   90.8139   10.6974 C.ar    1  UNL1        0.0800
      7 C          61.8558   89.6033   10.5624 C.ar    1  UNL1        0.2645
      8 O          60.7174   89.6061    9.5856 O.2     1  UNL1       -0.2668
      9 N          63.5201   87.1738   13.2227 N.pl3   1  UNL1       -0.2740
     10 C          64.0592   87.3286   14.6139 C.3     1  UNL1        0.1257
     11 C          64.3222   86.1152   15.4557 C.3     1  UNL1        0.1640
     12 O          64.0461   84.7470   14.9063 O.3     1  UNL1       -0.3483
     13 C          63.5070   84.5923   13.5150 C.3     1  UNL1        0.1572
     14 C          63.2440   85.8056   12.6733 C.3     1  UNL1        0.1276
     15 C          63.2309   83.2241   12.9656 C.ar    1  UNL1        0.0062
     16 C          63.5381   82.9163   11.5300 C.ar    1  UNL1       -0.0019
     17 C          63.2620   81.5482   10.9805 C.ar    1  UNL1       -0.0002
     18 C          62.6787   80.4877   11.8668 C.ar    1  UNL1       -0.0000
     19 C          62.3715   80.7955   13.3023 C.ar    1  UNL1       -0.0002
     20 C          62.6476   82.1637   13.8517 C.ar    1  UNL1       -0.0019
     21 C          64.7450   92.0216   11.8092 C.ar    1  UNL1        0.0210
     22 C          64.9579   92.9281   10.6332 C.ar    1  UNL1        0.0222
     23 C          65.8333   94.1387   10.7682 C.ar    1  UNL1        0.0989
     24 N          66.4958   94.4428   12.0792 N.ar    1  UNL1       -0.2423
     25 C          66.2828   93.5363   13.2551 C.ar    1  UNL1        0.0989
     26 C          65.4074   92.3257   13.1201 C.ar    1  UNL1        0.0222
@<TRIPOS>BOND
     1     1     2    1
     2     2     3   ar
     3     3     9    1
     4     9    10    1
     5    10    11    1
     6    11    12    1
     7    12    13    1
     8    13    15    1
     9    15    16   ar
    10    16    17   ar
    11    17    18   ar
    12    18    19   ar
    13    19    20   ar
    14    13    14    1
    15     3     4   ar
    16     4     5   ar
    17     5    21    1
    18    21    22   ar
    19    22    23   ar
    20    23    24   ar
    21    24    25   ar
    22    25    26   ar
    23     5     6   ar
    24     6     7   ar
    25     7     8    2
    26     7     2   ar
    27    14     9    1
    28    26    21   ar
    29    20    15   ar
@<TRIPOS>MOLECULE
*****
 26 29 0 0 0
SMALL
GASTEIGER

@<TRIPOS>ATOM
      1 C          64.4709   89.2874   14.0091 C.3     1  UNL1        0.1363
      2 N          63.5591   89.0431   12.8434 N.ar    1  UNL1       -0.2667
      3 C          63.0806   87.6534   12.5439 C.ar    1  UNL1        0.2036
      4 N          62.1689   87.4090   11.3781 N.ar    1  UNL1       -0.2148
      5 C          61.7356   88.5544   10.5118 C.ar    1  UNL1        0.0890
      6 C          62.2142   89.9440   10.8113 C.ar    1  UNL1        0.0800
      7 C          63.1259   90.1884   11.9771 C.ar    1  UNL1        0.2645
      8 O          63.6045   91.5782   12.2765 O.2     1  UNL1       -0.2668
      9 N          63.5138   86.5080   13.4102 N.pl3   1  UNL1       -0.2740
     10 C          64.4281   86.7518   14.5740 C.3     1  UNL1        0.1257
     11 C          64.8614   85.6064   15.4403 C.3     1  UNL1        0.1640
     12 O          64.3802   84.2172   15.1427 O.3     1  UNL1       -0.3483
     13 C          63.4659   83.9734   13.9788 C.3     1  UNL1        0.1572
     14 C          63.0327   85.1188   13.1126 C.3     1  UNL1        0.1276
     15 C          62.9847   82.5841   13.6813 C.ar    1  UNL1        0.0062
     16 C          63.6036   81.7997   12.5625 C.ar    1  UNL1       -0.0019
     17 C          63.1225   80.4104   12.2649 C.ar    1  UNL1       -0.0002
     18 C          62.0224   79.8057   13.0861 C.ar    1  UNL1       -0.0000
     19 C          61.4036   80.5902   14.2048 C.ar    1  UNL1       -0.0002
     20 C          61.8847   81.9794   14.5024 C.ar    1  UNL1       -0.0019
     21 C          60.8239   88.3100    9.3461 C.ar    1  UNL1        0.0210
     22 C          60.3170   89.4656    8.5352 C.ar    1  UNL1        0.0222
     23 C          59.4053   89.2213    7.3695 C.ar    1  UNL1        0.0989
     24 N          59.0004   87.8213    7.0146 N.ar    1  UNL1       -0.2423
     25 C          59.5072   86.6656    7.8254 C.ar    1  UNL1        0.0989
     26 C          60.4190   86.9100    8.9912 C.ar    1  UNL1        0.0222
@<TRIPOS>BOND
     1     1     2    1
     2     2     3   ar
     3     3     9    1
     4     9    10    1
     5    10    11    1
     6    11    12    1
     7    12    13    1
     8    13    15    1
     9    15    16   ar
    10    16    17   ar
    11    17    18   ar
    12    18    19   ar
    13    19    20   ar
    14    13    14    1
    15     3     4   ar
    16     4     5   ar
    17     5    21    1
    18    21    22   ar
    19    22    23   ar
    20    23    24   ar
    21    24    25   ar
    22    25    26   ar
    23     5     6   ar
    24     6     7   ar
    25     7     8    2
    26     7     2   ar
    27    14     9    1
    28    26    21   ar
    29    20    15   ar
