@<TRIPOS>MOLECULE
*****
 47 52 0 0 0
SMALL
GASTEIGER

@<TRIPOS>ATOM
      1 C          64.3469   89.7058   13.4513 C.ar    1  UNL1        0.1348
      2 C          63.5986   90.5451   12.4585 C.ar    1  UNL1        0.0346
      3 C          62.7263   89.8900   11.4291 C.ar    1  UNL1        0.0065
      4 C          62.6021   88.3956   11.3925 C.ar    1  UNL1        0.0432
      5 C          63.3503   87.5563   12.3853 C.ar    1  UNL1        0.1256
      6 N          64.2227   88.2115   13.4147 N.ar    1  UNL1       -0.2222
      7 C          61.7297   87.7405   10.3630 C.ar    1  UNL1        0.0851
      8 C          60.2500   87.9327   10.2099 C.ar    1  UNL1        0.1035
      9 N          59.7896   87.0891    9.0582 N.ar    1  UNL1       -0.2263
     10 C          60.9848   86.3755    8.4995 C.ar    1  UNL1        0.1475
     11 C          61.1363   85.4111    7.3606 C.ar    1  UNL1        0.0332
     12 C          62.4867   84.8493    7.0282 C.ar    1  UNL1       -0.0174
     13 C          62.6382   83.8849    5.8893 C.3     1  UNL1        0.0312
     14 C          63.6858   85.2518    7.8346 C.ar    1  UNL1        0.0149
     15 C          63.5344   86.2161    8.9735 C.ar    1  UNL1        0.0811
     16 N          62.1838   86.7780    9.3059 N.ar    1  UNL1       -0.2888
     17 C          59.3828   88.8139   11.0594 C.ar    1  UNL1        0.0723
     18 C          58.5953   88.2241   12.1917 C.ar    1  UNL1        0.0078
     19 C          57.7282   89.1053   13.0412 C.ar    1  UNL1        0.0209
     20 C          57.6485   90.5762   12.7584 C.ar    1  UNL1        0.1021
     21 N          58.4359   91.1659   11.6261 N.ar    1  UNL1       -0.2101
     22 C          59.3031   90.2848   10.7766 C.ar    1  UNL1        0.2264
     23 O          60.0905   90.8747    9.6443 O.3     1  UNL1       -0.4561
     24 C          60.1684   90.1554    8.3303 C.3     1  UNL1        0.2542
     25 C          66.1599   91.4579   14.0784 C.2     1  UNL1        0.2414
     26 O          66.2281   91.8998   12.6465 O.2     1  UNL1       -0.2733
     27 N          65.2193   90.3610   14.4808 N.am    1  UNL1       -0.2682
     28 H          65.1745   90.0710   15.4205 H       1  UNL1        0.1563
     29 C          67.0323   92.1130   15.1078 C.3     1  UNL1        0.1319
     30 C          66.4205   92.7018   16.3444 C.3     1  UNL1        0.0270
     31 C          69.3246   93.2334   15.5978 C.3     1  UNL1        0.0862
     32 N          68.5164   92.1794   14.9007 N.3     1  UNL1       -0.2902
     33 H          68.8949   91.2779   15.1915 H       1  UNL1        0.1237
     34 C          63.2262   86.0619   12.3487 C.1     1  UNL1       -0.0404
     35 C          63.1020   84.5675   12.3121 C.1     1  UNL1       -0.0583
     36 C          62.9779   83.0730   12.2756 C.ar    1  UNL1        0.0421
     37 C          62.7291   82.3099   13.5427 C.ar    1  UNL1        0.0097
     38 C          62.6050   80.8155   13.5061 C.ar    1  UNL1        0.0179
     39 C          62.7297   80.0843   12.2023 C.ar    1  UNL1        0.0625
     40 C          62.9785   80.8474   10.9352 C.ar    1  UNL1        0.0166
     41 C          63.1031   80.1162    9.6314 C.ar    1  UNL1        0.0063
     42 C          62.9790   78.6218    9.5948 C.ar    1  UNL1        0.0608
     43 C          62.7302   77.8586   10.8620 C.ar    1  UNL1        0.2610
     44 O          62.6061   76.3642   10.8254 O.2     1  UNL1       -0.2670
     45 N          62.6055   78.5898   12.1657 N.ar    1  UNL1       -0.2935
     46 C          62.3567   77.8267   13.4329 C.3     1  UNL1        0.1335
     47 C          63.1026   82.3418   10.9718 C.ar    1  UNL1        0.0097
@<TRIPOS>BOND
     1    31    32    1
     2    32    29    1
     3    29    30    1
     4    29    25    1
     5    25    26    2
     6    25    27   am
     7    27     1    1
     8     1     2   ar
     9     2     3   ar
    10     3     4   ar
    11     4     7    1
    12     7     8   ar
    13     8    17    1
    14    17    18   ar
    15    18    19   ar
    16    19    20   ar
    17    20    21   ar
    18    21    22   ar
    19    22    23    1
    20    23    24    1
    21     8     9   ar
    22     9    10   ar
    23    10    11   ar
    24    11    12   ar
    25    12    13    1
    26    12    14   ar
    27    14    15   ar
    28    15    16   ar
    29     4     5   ar
    30     5    34    1
    31    34    35    3
    32    35    36    1
    33    36    37   ar
    34    37    38   ar
    35    38    39   ar
    36    39    40   ar
    37    40    41   ar
    38    41    42   ar
    39    42    43   ar
    40    43    44    2
    41    43    45   ar
    42    45    46    1
    43    40    47   ar
    44     5     6   ar
    45     6     1   ar
    46    16     7   ar
    47    47    36   ar
    48    22    17   ar
    49    16    10   ar
    50    45    39   ar
    51    32    33    1
    52    27    28    1
@<TRIPOS>MOLECULE
*****
 47 52 0 0 0
SMALL
GASTEIGER

@<TRIPOS>ATOM
      1 C          59.7554   90.5983    5.5984 C.ar    1  UNL1        0.1348
      2 C          58.9292   89.3582    5.7698 C.ar    1  UNL1        0.0346
      3 C          59.0671   88.5310    7.0134 C.ar    1  UNL1        0.0065
      4 C          60.0312   88.9439    8.0857 C.ar    1  UNL1        0.0432
      5 C          60.8574   90.1840    7.9144 C.ar    1  UNL1        0.1256
      6 N          60.7195   91.0112    6.6708 N.ar    1  UNL1       -0.2222
      7 C          60.1692   88.1166    9.3294 C.ar    1  UNL1        0.0851
      8 C          60.6918   86.7125    9.4009 C.ar    1  UNL1        0.1035
      9 N          60.6543   86.2763   10.8356 N.ar    1  UNL1       -0.2263
     10 C          60.1085   87.4110   11.6508 C.ar    1  UNL1        0.1475
     11 C          59.8457   87.5554   13.1205 C.ar    1  UNL1        0.0332
     12 C          59.2830   88.8373   13.6594 C.ar    1  UNL1       -0.0174
     13 C          59.0203   88.9817   15.1291 C.3     1  UNL1        0.0312
     14 C          58.9832   89.9747   12.7285 C.ar    1  UNL1        0.0149
     15 C          59.2459   89.8302   11.2588 C.ar    1  UNL1        0.0811
     16 N          59.8086   88.5483   10.7200 N.ar    1  UNL1       -0.2888
     17 C          61.1684   85.8890    8.2412 C.ar    1  UNL1        0.0723
     18 C          60.2858   85.6990    7.0432 C.ar    1  UNL1        0.0078
     19 C          60.7624   84.8756    5.8836 C.ar    1  UNL1        0.0209
     20 C          62.1214   84.2420    5.9219 C.ar    1  UNL1        0.1021
     21 N          63.0040   84.4319    7.1198 N.ar    1  UNL1       -0.2101
     22 C          62.5274   85.2554    8.2794 C.ar    1  UNL1        0.2264
     23 O          63.4101   85.4453    9.4774 O.3     1  UNL1       -0.4561
     24 C          63.4497   84.4004   10.5529 C.3     1  UNL1        0.2542
     25 C          60.8403   91.8496    3.5966 C.2     1  UNL1        0.2414
     26 O          62.2012   91.4464    4.0821 O.2     1  UNL1       -0.2733
     27 N          59.6175   91.4256    4.3548 N.am    1  UNL1       -0.2682
     28 H          58.7244   91.6902    4.0361 H       1  UNL1        0.1563
     29 C          60.7024   92.6768    2.3530 C.3     1  UNL1        0.1319
     30 C          61.9013   93.3701    1.7766 C.3     1  UNL1        0.0270
     31 C          59.2455   93.5574    0.3903 C.3     1  UNL1        0.0862
     32 N          59.3657   92.8109    1.6858 N.3     1  UNL1       -0.2902
     33 H          59.0267   91.8645    1.5128 H       1  UNL1        0.1237
     34 C          61.8216   90.5970    8.9868 C.1     1  UNL1       -0.0404
     35 C          62.7858   91.0099   10.0590 C.1     1  UNL1       -0.0583
     36 C          63.7500   91.4229   11.1314 C.ar    1  UNL1        0.0421
     37 C          65.0109   92.1490   10.7671 C.ar    1  UNL1        0.0097
     38 C          65.9750   92.5619   11.8395 C.ar    1  UNL1        0.0179
     39 C          65.6782   92.2487   13.2761 C.ar    1  UNL1        0.0625
     40 C          64.4173   91.5225   13.6403 C.ar    1  UNL1        0.0166
     41 C          64.1205   91.2093   15.0769 C.ar    1  UNL1        0.0063
     42 C          65.0846   91.6222   16.1492 C.ar    1  UNL1        0.0608
     43 C          66.3456   92.3484   15.7850 C.ar    1  UNL1        0.2610
     44 O          67.3097   92.7614   16.8573 O.2     1  UNL1       -0.2670
     45 N          66.6424   92.6617   14.3484 N.ar    1  UNL1       -0.2935
     46 C          67.9033   93.3878   13.9842 C.3     1  UNL1        0.1335
     47 C          63.4532   91.1096   12.5680 C.ar    1  UNL1        0.0097
@<TRIPOS>BOND
     1    31    32    1
     2    32    29    1
     3    29    30    1
     4    29    25    1
     5    25    26    2
     6    25    27   am
     7    27     1    1
     8     1     2   ar
     9     2     3   ar
    10     3     4   ar
    11     4     7    1
    12     7     8   ar
    13     8    17    1
    14    17    18   ar
    15    18    19   ar
    16    19    20   ar
    17    20    21   ar
    18    21    22   ar
    19    22    23    1
    20    23    24    1
    21     8     9   ar
    22     9    10   ar
    23    10    11   ar
    24    11    12   ar
    25    12    13    1
    26    12    14   ar
    27    14    15   ar
    28    15    16   ar
    29     4     5   ar
    30     5    34    1
    31    34    35    3
    32    35    36    1
    33    36    37   ar
    34    37    38   ar
    35    38    39   ar
    36    39    40   ar
    37    40    41   ar
    38    41    42   ar
    39    42    43   ar
    40    43    44    2
    41    43    45   ar
    42    45    46    1
    43    40    47   ar
    44     5     6   ar
    45     6     1   ar
    46    16     7   ar
    47    47    36   ar
    48    22    17   ar
    49    16    10   ar
    50    45    39   ar
    51    32    33    1
    52    27    28    1
@<TRIPOS>MOLECULE
*****
 47 52 0 0 0
SMALL
GASTEIGER

@<TRIPOS>ATOM
      1 C          60.6821   87.8619    8.6565 C.ar    1  UNL1        0.1348
      2 C          60.4107   86.5142    9.2565 C.ar    1  UNL1        0.0346
      3 C          61.0547   86.1279   10.5550 C.ar    1  UNL1        0.0065
      4 C          61.9700   87.0893   11.2535 C.ar    1  UNL1        0.0432
      5 C          62.2414   88.4369   10.6534 C.ar    1  UNL1        0.1256
      6 N          61.5975   88.8232    9.3549 N.ar    1  UNL1       -0.2222
      7 C          62.6140   86.7029   12.5520 C.ar    1  UNL1        0.0851
      8 C          63.2312   85.3730   12.8688 C.ar    1  UNL1        0.1035
      9 N          63.7525   85.4269   14.2742 N.ar    1  UNL1       -0.2263
     10 C          63.4574   86.7901   14.8261 C.ar    1  UNL1        0.1475
     11 C          63.7385   87.4152   16.1604 C.ar    1  UNL1        0.0332
     12 C          63.3160   88.8289   16.4302 C.ar    1  UNL1       -0.0174
     13 C          63.5971   89.4540   17.7645 C.3     1  UNL1        0.0312
     14 C          62.6123   89.6176   15.3658 C.ar    1  UNL1        0.0149
     15 C          62.3312   88.9925   14.0316 C.ar    1  UNL1        0.0811
     16 N          62.7538   87.5787   13.7617 N.ar    1  UNL1       -0.2888
     17 C          63.3129   84.1959   11.9426 C.ar    1  UNL1        0.0723
     18 C          63.9468   84.3471   10.5915 C.ar    1  UNL1        0.0078
     19 C          64.0284   83.1700    9.6654 C.ar    1  UNL1        0.0209
     20 C          63.4763   81.8417   10.0903 C.ar    1  UNL1        0.1021
     21 N          62.8424   81.6905   11.4413 N.ar    1  UNL1       -0.2101
     22 C          62.7607   82.8676   12.3675 C.ar    1  UNL1        0.2264
     23 O          62.1268   82.7163   13.7186 O.3     1  UNL1       -0.4561
     24 C          61.5872   81.3845   14.1488 C.3     1  UNL1        0.2542
     25 C          59.4963   89.6345    7.1728 C.2     1  UNL1        0.2414
     26 O          59.5985   90.6347    8.2860 O.2     1  UNL1       -0.2733
     27 N          60.0382   88.2482    7.3580 N.am    1  UNL1       -0.2682
     28 H          59.9711   87.5918    6.6273 H       1  UNL1        0.1563
     29 C          58.8524   90.0208    5.8743 C.3     1  UNL1        0.1319
     30 C          59.6987   90.4871    4.7269 C.3     1  UNL1        0.0270
     31 C          56.6016   91.1060    5.1627 C.3     1  UNL1        0.0862
     32 N          57.3622   89.9409    5.7231 N.3     1  UNL1       -0.2902
     33 H          57.1702   89.1443    5.1157 H       1  UNL1        0.1237
     34 C          63.1568   89.3984   11.3519 C.1     1  UNL1       -0.0404
     35 C          64.0722   90.3597   12.0503 C.1     1  UNL1       -0.0583
     36 C          64.9876   91.3212   12.7488 C.ar    1  UNL1        0.0421
     37 C          65.0422   92.7555   12.3135 C.ar    1  UNL1        0.0097
     38 C          65.9576   93.7169   13.0119 C.ar    1  UNL1        0.0179
     39 C          66.8183   93.2439   14.1457 C.ar    1  UNL1        0.0625
     40 C          66.7637   91.8095   14.5810 C.ar    1  UNL1        0.0166
     41 C          67.6244   91.3365   15.7147 C.ar    1  UNL1        0.0063
     42 C          68.5397   92.2978   16.4132 C.ar    1  UNL1        0.0608
     43 C          68.5944   93.7323   15.9779 C.ar    1  UNL1        0.2610
     44 O          69.5098   94.6937   16.6763 O.2     1  UNL1       -0.2670
     45 N          67.7337   94.2053   14.8441 N.ar    1  UNL1       -0.2935
     46 C          67.7883   95.6397   14.4088 C.3     1  UNL1        0.1335
     47 C          65.8483   90.8481   13.8825 C.ar    1  UNL1        0.0097
@<TRIPOS>BOND
     1    31    32    1
     2    32    29    1
     3    29    30    1
     4    29    25    1
     5    25    26    2
     6    25    27   am
     7    27     1    1
     8     1     2   ar
     9     2     3   ar
    10     3     4   ar
    11     4     7    1
    12     7     8   ar
    13     8    17    1
    14    17    18   ar
    15    18    19   ar
    16    19    20   ar
    17    20    21   ar
    18    21    22   ar
    19    22    23    1
    20    23    24    1
    21     8     9   ar
    22     9    10   ar
    23    10    11   ar
    24    11    12   ar
    25    12    13    1
    26    12    14   ar
    27    14    15   ar
    28    15    16   ar
    29     4     5   ar
    30     5    34    1
    31    34    35    3
    32    35    36    1
    33    36    37   ar
    34    37    38   ar
    35    38    39   ar
    36    39    40   ar
    37    40    41   ar
    38    41    42   ar
    39    42    43   ar
    40    43    44    2
    41    43    45   ar
    42    45    46    1
    43    40    47   ar
    44     5     6   ar
    45     6     1   ar
    46    16     7   ar
    47    47    36   ar
    48    22    17   ar
    49    16    10   ar
    50    45    39   ar
    51    32    33    1
    52    27    28    1
@<TRIPOS>MOLECULE
*****
 47 52 0 0 0
SMALL
GASTEIGER

@<TRIPOS>ATOM
      1 C          59.0506   89.1411    7.0540 C.ar    1  UNL1        0.1348
      2 C          58.8059   87.6649    7.1587 C.ar    1  UNL1        0.0346
      3 C          59.5662   86.8479    8.1609 C.ar    1  UNL1        0.0065
      4 C          60.5712   87.5070    9.0584 C.ar    1  UNL1        0.0432
      5 C          60.8159   88.9832    8.9536 C.ar    1  UNL1        0.1256
      6 N          60.0556   89.8002    7.9514 N.ar    1  UNL1       -0.2222
      7 C          61.3315   86.6900   10.0606 C.ar    1  UNL1        0.0851
      8 C          61.3276   86.8910   11.5470 C.ar    1  UNL1        0.1035
      9 N          62.2229   85.8538   12.1574 N.ar    1  UNL1       -0.2263
     10 C          62.7802   85.0117   11.0482 C.ar    1  UNL1        0.1475
     11 C          63.7181   83.8411   11.0508 C.ar    1  UNL1        0.0332
     12 C          64.1051   83.1874    9.7574 C.ar    1  UNL1       -0.0174
     13 C          65.0430   82.0168    9.7599 C.3     1  UNL1        0.0312
     14 C          63.5542   83.7042    8.4614 C.ar    1  UNL1        0.0149
     15 C          62.6163   84.8748    8.4589 C.ar    1  UNL1        0.0811
     16 N          62.2293   85.5286    9.7523 N.ar    1  UNL1       -0.2888
     17 C          60.5626   87.9443   12.2923 C.ar    1  UNL1        0.0723
     18 C          59.1263   88.2106   11.9512 C.ar    1  UNL1        0.0078
     19 C          58.3614   89.2639   12.6965 C.ar    1  UNL1        0.0209
     20 C          59.0326   90.0509   13.7828 C.ar    1  UNL1        0.1021
     21 N          60.4689   89.7846   14.1238 N.ar    1  UNL1       -0.2101
     22 C          61.2338   88.7313   13.3786 C.ar    1  UNL1        0.2264
     23 O          62.6701   88.4650   13.7197 O.3     1  UNL1       -0.4561
     24 C          63.0815   88.2944   15.1521 C.3     1  UNL1        0.2542
     25 C          59.0196   90.9152    5.1562 C.2     1  UNL1        0.2414
     26 O          60.5093   91.0552    5.2628 O.2     1  UNL1       -0.2733
     27 N          58.2903   89.9581    6.0518 N.am    1  UNL1       -0.2682
     28 H          57.3126   89.8662    5.9818 H       1  UNL1        0.1563
     29 C          58.2593   91.7322    4.1540 C.3     1  UNL1        0.1319
     30 C          56.7943   91.9876    4.3510 C.3     1  UNL1        0.0270
     31 C          60.1291   93.2209    3.1354 C.3     1  UNL1        0.0862
     32 N          58.9639   92.2938    2.9548 N.3     1  UNL1       -0.2902
     33 H          59.3016   91.4986    2.4125 H       1  UNL1        0.1237
     34 C          61.8210   89.6424    9.8510 C.1     1  UNL1       -0.0404
     35 C          62.8260   90.3016   10.7485 C.1     1  UNL1       -0.0583
     36 C          63.8311   90.9608   11.6459 C.ar    1  UNL1        0.0421
     37 C          65.0076   91.6790   11.0544 C.ar    1  UNL1        0.0097
     38 C          66.0126   92.3381   11.9518 C.ar    1  UNL1        0.0179
     39 C          65.8411   92.2791   13.4408 C.ar    1  UNL1        0.0625
     40 C          64.6646   91.5609   14.0324 C.ar    1  UNL1        0.0166
     41 C          64.4931   91.5019   15.5213 C.ar    1  UNL1        0.0063
     42 C          65.4980   92.1611   16.4188 C.ar    1  UNL1        0.0608
     43 C          66.6746   92.8793   15.8272 C.ar    1  UNL1        0.2610
     44 O          67.6796   93.5385   16.7247 O.2     1  UNL1       -0.2670
     45 N          66.8462   92.9383   14.3382 N.ar    1  UNL1       -0.2935
     46 C          68.0227   93.6565   13.7467 C.3     1  UNL1        0.1335
     47 C          63.6596   90.9018   13.1349 C.ar    1  UNL1        0.0097
@<TRIPOS>BOND
     1    31    32    1
     2    32    29    1
     3    29    30    1
     4    29    25    1
     5    25    26    2
     6    25    27   am
     7    27     1    1
     8     1     2   ar
     9     2     3   ar
    10     3     4   ar
    11     4     7    1
    12     7     8   ar
    13     8    17    1
    14    17    18   ar
    15    18    19   ar
    16    19    20   ar
    17    20    21   ar
    18    21    22   ar
    19    22    23    1
    20    23    24    1
    21     8     9   ar
    22     9    10   ar
    23    10    11   ar
    24    11    12   ar
    25    12    13    1
    26    12    14   ar
    27    14    15   ar
    28    15    16   ar
    29     4     5   ar
    30     5    34    1
    31    34    35    3
    32    35    36    1
    33    36    37   ar
    34    37    38   ar
    35    38    39   ar
    36    39    40   ar
    37    40    41   ar
    38    41    42   ar
    39    42    43   ar
    40    43    44    2
    41    43    45   ar
    42    45    46    1
    43    40    47   ar
    44     5     6   ar
    45     6     1   ar
    46    16     7   ar
    47    47    36   ar
    48    22    17   ar
    49    16    10   ar
    50    45    39   ar
    51    32    33    1
    52    27    28    1
@<TRIPOS>MOLECULE
*****
 47 52 0 0 0
SMALL
GASTEIGER

@<TRIPOS>ATOM
      1 C          59.4036   89.6695    7.5525 C.ar    1  UNL1        0.1348
      2 C          59.2431   88.1890    7.7320 C.ar    1  UNL1        0.0346
      3 C          60.0897   87.4585    8.7318 C.ar    1  UNL1        0.0065
      4 C          61.0969   88.2085    9.5521 C.ar    1  UNL1        0.0432
      5 C          61.2574   89.6890    9.3727 C.ar    1  UNL1        0.1256
      6 N          60.4108   90.4195    8.3729 N.ar    1  UNL1       -0.2222
      7 C          61.9435   87.4780   10.5519 C.ar    1  UNL1        0.0851
      8 C          62.6278   86.1612   10.3332 C.ar    1  UNL1        0.1035
      9 N          63.3617   85.8054   11.5920 N.ar    1  UNL1       -0.2263
     10 C          63.1309   86.9022   12.5889 C.ar    1  UNL1        0.1475
     11 C          63.6057   87.0933   13.9989 C.ar    1  UNL1        0.0332
     12 C          63.2039   88.3180   14.7660 C.ar    1  UNL1       -0.0174
     13 C          63.6786   88.5091   16.1760 C.3     1  UNL1        0.0312
     14 C          62.3274   89.3518   14.1233 C.ar    1  UNL1        0.0149
     15 C          61.8526   89.1607   12.7133 C.ar    1  UNL1        0.0811
     16 N          62.2544   87.9359   11.9460 N.ar    1  UNL1       -0.2888
     17 C          62.5857   85.3438    9.0762 C.ar    1  UNL1        0.0723
     18 C          61.7398   85.7889    7.9200 C.ar    1  UNL1        0.0078
     19 C          61.6977   84.9714    6.6630 C.ar    1  UNL1        0.0209
     20 C          62.5014   83.7090    6.5621 C.ar    1  UNL1        0.1021
     21 N          63.3473   83.2640    7.7181 N.ar    1  UNL1       -0.2101
     22 C          63.3894   84.0814    8.9751 C.ar    1  UNL1        0.2264
     23 O          64.2353   83.6362   10.1312 O.3     1  UNL1       -0.4561
     24 C          63.9657   82.3178   10.7939 C.3     1  UNL1        0.2542
     25 C          59.1903   91.0127    5.3389 C.2     1  UNL1        0.2414
     26 O          60.6703   90.8948    5.1247 O.2     1  UNL1       -0.2733
     27 N          58.5570   90.4000    6.5528 N.am    1  UNL1       -0.2682
     28 H          57.5857   90.4774    6.6933 H       1  UNL1        0.1563
     29 C          58.3437   91.7432    4.3391 C.3     1  UNL1        0.1319
     30 C          56.8880   91.9759    4.6166 C.3     1  UNL1        0.0270
     31 C          60.0637   93.2479    3.1032 C.3     1  UNL1        0.0862
     32 N          58.9527   92.2409    3.0619 N.3     1  UNL1       -0.2902
     33 H          59.3141   91.4237    2.5699 H       1  UNL1        0.1237
     34 C          62.2647   90.4391   10.1931 C.1     1  UNL1       -0.0404
     35 C          63.2718   91.1891   11.0134 C.1     1  UNL1       -0.0583
     36 C          64.2791   91.9392   11.8338 C.ar    1  UNL1        0.0421
     37 C          64.7660   93.2829   11.3787 C.ar    1  UNL1        0.0097
     38 C          65.7732   94.0329   12.1990 C.ar    1  UNL1        0.0179
     39 C          66.2934   93.4392   13.4745 C.ar    1  UNL1        0.0625
     40 C          65.8065   92.0955   13.9296 C.ar    1  UNL1        0.0166
     41 C          66.3267   91.5018   15.2051 C.ar    1  UNL1        0.0063
     42 C          67.3339   92.2518   16.0255 C.ar    1  UNL1        0.0608
     43 C          67.8209   93.5956   15.5703 C.ar    1  UNL1        0.2610
     44 O          68.8280   94.3456   16.3907 O.2     1  UNL1       -0.2670
     45 N          67.3007   94.1893   14.2949 N.ar    1  UNL1       -0.2935
     46 C          67.7876   95.5330   13.8397 C.3     1  UNL1        0.1335
     47 C          64.7993   91.3455   13.1093 C.ar    1  UNL1        0.0097
@<TRIPOS>BOND
     1    31    32    1
     2    32    29    1
     3    29    30    1
     4    29    25    1
     5    25    26    2
     6    25    27   am
     7    27     1    1
     8     1     2   ar
     9     2     3   ar
    10     3     4   ar
    11     4     7    1
    12     7     8   ar
    13     8    17    1
    14    17    18   ar
    15    18    19   ar
    16    19    20   ar
    17    20    21   ar
    18    21    22   ar
    19    22    23    1
    20    23    24    1
    21     8     9   ar
    22     9    10   ar
    23    10    11   ar
    24    11    12   ar
    25    12    13    1
    26    12    14   ar
    27    14    15   ar
    28    15    16   ar
    29     4     5   ar
    30     5    34    1
    31    34    35    3
    32    35    36    1
    33    36    37   ar
    34    37    38   ar
    35    38    39   ar
    36    39    40   ar
    37    40    41   ar
    38    41    42   ar
    39    42    43   ar
    40    43    44    2
    41    43    45   ar
    42    45    46    1
    43    40    47   ar
    44     5     6   ar
    45     6     1   ar
    46    16     7   ar
    47    47    36   ar
    48    22    17   ar
    49    16    10   ar
    50    45    39   ar
    51    32    33    1
    52    27    28    1
