@<TRIPOS>MOLECULE
*****
 29 33 0 0 0
SMALL
GASTEIGER

@<TRIPOS>ATOM
      1 O          61.3645   88.7574   12.1616 O.3     1  UNL1       -0.4630
      2 C          59.4508   88.1287    7.3717 C.3     1  UNL1        0.0308
      3 C          60.2467   87.6075    8.5314 C.ar    1  UNL1       -0.0231
      4 C          60.4077   88.4431    9.7667 C.ar    1  UNL1        0.0324
      5 C          61.2036   87.9218   10.9264 C.ar    1  UNL1        0.1402
      6 C          61.8385   86.5650   10.8508 C.ar    1  UNL1        0.0479
      7 C          61.6775   85.7293    9.6155 C.ar    1  UNL1       -0.0171
      8 C          60.8816   86.2506    8.4558 C.ar    1  UNL1       -0.0292
      9 C          60.7207   85.4149    7.2206 C.3     1  UNL1        0.0304
     10 C          62.4134   84.4398    9.8291 C.3     1  UNL1        0.0606
     11 C          63.0292   84.4785   11.1964 C.ar    1  UNL1        0.0308
     12 S          63.8646   83.7054   12.1733 S.2     1  UNL1       -0.0685
     13 C          64.0256   84.5411   13.4086 C.ar    1  UNL1        0.1342
     14 N          63.2896   85.8306   13.1950 N.ar    1  UNL1       -0.2365
     15 C          62.6739   85.7919   11.8278 C.ar    1  UNL1        0.0868
     16 C          61.6753   90.2201   12.0424 C.3     1  UNL1        0.3201
     17 P          62.9880   90.7507   12.5378 P.3     1  UNL1        0.3872
     18 O          62.4788   90.1034   13.7915 O.2     1  UNL1       -0.2539
     19 O          63.0413   91.2136   11.1120 O.3     1  UNL1       -0.2916
     20 C          64.2304   91.9824   10.6171 C.3     1  UNL1        0.1543
     21 C          65.3662   92.2883   11.5479 C.3     1  UNL1        0.0673
     22 C          65.3129   91.8253   12.9737 C.3     1  UNL1        0.1502
     23 O          64.1237   91.0565   13.4686 O.3     1  UNL1       -0.2895
     24 C          66.4487   92.1311   13.9045 C.ar    1  UNL1        0.0243
     25 C          66.1706   92.4936   15.3333 C.ar    1  UNL1        0.0012
     26 C          67.3063   92.7994   16.2642 C.ar    1  UNL1        0.0204
     27 C          68.7201   92.7427   15.7664 C.ar    1  UNL1        0.0989
     28 N          68.9982   92.3802   14.3376 N.ar    1  UNL1       -0.2426
     29 C          67.8625   92.0744   13.4068 C.ar    1  UNL1        0.0969
@<TRIPOS>BOND
     1     2     3    1
     2     3     4   ar
     3     4     5   ar
     4     5     1    1
     5     1    16    1
     6    17    16    1
     7    17    18    2
     8    17    19    1
     9    19    20    1
    10    20    21    1
    11    21    22    1
    12    22    24    1
    13    24    25   ar
    14    25    26   ar
    15    26    27   ar
    16    27    28   ar
    17    28    29   ar
    18    22    23    1
    19     5     6   ar
    20     6     7   ar
    21     7     8   ar
    22     8     9    1
    23     7    10    1
    24    10    11    1
    25    11    12   ar
    26    12    13   ar
    27    13    14   ar
    28    14    15   ar
    29     8     3   ar
    30    15    11   ar
    31    23    17    1
    32    15     6    1
    33    29    24   ar
@<TRIPOS>MOLECULE
*****
 29 33 0 0 0
SMALL
GASTEIGER

@<TRIPOS>ATOM
      1 O          63.1521   89.5509   14.7506 O.3     1  UNL1       -0.4630
      2 C          66.7018   93.0798   13.3553 C.3     1  UNL1        0.0308
      3 C          65.5333   92.2054   13.0088 C.ar    1  UNL1       -0.0231
      4 C          64.9269   91.3153   14.0530 C.ar    1  UNL1        0.0324
      5 C          63.7584   90.4409   13.7064 C.ar    1  UNL1        0.1402
      6 C          63.1963   90.4565   12.3159 C.ar    1  UNL1        0.0479
      7 C          63.8027   91.3466   11.2718 C.ar    1  UNL1       -0.0171
      8 C          64.9712   92.2210   11.6182 C.ar    1  UNL1       -0.0292
      9 C          65.5775   93.1110   10.5741 C.3     1  UNL1        0.0304
     10 C          63.0397   91.1500    9.9953 C.3     1  UNL1        0.0606
     11 C          61.9619   90.1385   10.2505 C.ar    1  UNL1        0.0308
     12 S          60.8243   89.3919    9.6194 S.2     1  UNL1       -0.0685
     13 C          60.2180   88.5019   10.6635 C.ar    1  UNL1        0.1342
     14 N          60.9809   88.6984   11.9400 N.ar    1  UNL1       -0.2365
     15 C          62.0587   89.7099   11.6848 C.ar    1  UNL1        0.0868
     16 C          63.9635   88.4436   15.3554 C.3     1  UNL1        0.3201
     17 P          63.6713   87.0170   14.9957 P.3     1  UNL1        0.3872
     18 O          64.2340   87.5040   13.6933 O.2     1  UNL1       -0.2539
     19 O          63.2100   87.0255   16.4230 O.3     1  UNL1       -0.2916
     20 C          62.6520   85.7764   17.0382 C.3     1  UNL1        0.1543
     21 C          62.5553   84.5189   16.2262 C.3     1  UNL1        0.0673
     22 C          63.0166   84.5105   14.7989 C.3     1  UNL1        0.1502
     23 O          63.5746   85.7596   14.1836 O.3     1  UNL1       -0.2895
     24 C          62.9198   83.2531   13.9868 C.ar    1  UNL1        0.0243
     25 C          62.0649   82.1164   14.4634 C.ar    1  UNL1        0.0012
     26 C          61.9682   80.8589   13.6514 C.ar    1  UNL1        0.0204
     27 C          62.7263   80.7381   12.3628 C.ar    1  UNL1        0.0989
     28 N          63.5812   81.8748   11.8861 N.ar    1  UNL1       -0.2426
     29 C          63.6780   83.1322   12.6982 C.ar    1  UNL1        0.0969
@<TRIPOS>BOND
     1     2     3    1
     2     3     4   ar
     3     4     5   ar
     4     5     1    1
     5     1    16    1
     6    17    16    1
     7    17    18    2
     8    17    19    1
     9    19    20    1
    10    20    21    1
    11    21    22    1
    12    22    24    1
    13    24    25   ar
    14    25    26   ar
    15    26    27   ar
    16    27    28   ar
    17    28    29   ar
    18    22    23    1
    19     5     6   ar
    20     6     7   ar
    21     7     8   ar
    22     8     9    1
    23     7    10    1
    24    10    11    1
    25    11    12   ar
    26    12    13   ar
    27    13    14   ar
    28    14    15   ar
    29     8     3   ar
    30    15    11   ar
    31    23    17    1
    32    15     6    1
    33    29    24   ar
@<TRIPOS>MOLECULE
*****
 29 33 0 0 0
SMALL
GASTEIGER

@<TRIPOS>ATOM
      1 O          63.5877   88.7162   13.3832 O.3     1  UNL1       -0.4630
      2 C          60.7821   88.8659    9.0121 C.3     1  UNL1        0.0308
      3 C          61.4942   88.0793   10.0723 C.ar    1  UNL1       -0.0231
      4 C          62.1850   88.7911   11.1977 C.ar    1  UNL1        0.0324
      5 C          62.8970   88.0043   12.2579 C.ar    1  UNL1        0.1402
      6 C          62.9184   86.5060   12.1929 C.ar    1  UNL1        0.0479
      7 C          62.2277   85.7942   11.0675 C.ar    1  UNL1       -0.0171
      8 C          61.5156   86.5808   10.0073 C.ar    1  UNL1       -0.0292
      9 C          60.8249   85.8690    8.8820 C.3     1  UNL1        0.0304
     10 C          62.4170   84.3195   11.2663 C.3     1  UNL1        0.0606
     11 C          63.2248   84.1199   12.5144 C.ar    1  UNL1        0.0308
     12 S          63.8409   83.0851   13.4086 S.2     1  UNL1       -0.0685
     13 C          64.5316   83.7969   14.5339 C.ar    1  UNL1        0.1342
     14 N          64.3423   85.2716   14.3352 N.ar    1  UNL1       -0.2365
     15 C          63.5346   85.4712   13.0871 C.ar    1  UNL1        0.0868
     16 C          63.3424   90.1788   13.6084 C.3     1  UNL1        0.3201
     17 P          64.2220   91.1975   12.9462 P.3     1  UNL1        0.3872
     18 O          63.0183   91.2736   12.0544 O.2     1  UNL1       -0.2539
     19 O          65.1202   90.7676   14.0680 O.3     1  UNL1       -0.2916
     20 C          66.4799   91.3829   14.2179 C.3     1  UNL1        0.1543
     21 C          66.9416   92.4281   13.2461 C.3     1  UNL1        0.0673
     22 C          66.0434   92.8580   12.1243 C.3     1  UNL1        0.1502
     23 O          64.6835   92.2427   11.9743 O.3     1  UNL1       -0.2895
     24 C          66.5049   93.9031   11.1524 C.ar    1  UNL1        0.0243
     25 C          67.2261   93.4975    9.9012 C.ar    1  UNL1        0.0012
     26 C          67.6876   94.5427    8.9293 C.ar    1  UNL1        0.0204
     27 C          67.4280   95.9934    9.2084 C.ar    1  UNL1        0.0989
     28 N          66.7069   96.3990   10.4597 N.ar    1  UNL1       -0.2426
     29 C          66.2453   95.3538   11.4316 C.ar    1  UNL1        0.0969
@<TRIPOS>BOND
     1     2     3    1
     2     3     4   ar
     3     4     5   ar
     4     5     1    1
     5     1    16    1
     6    17    16    1
     7    17    18    2
     8    17    19    1
     9    19    20    1
    10    20    21    1
    11    21    22    1
    12    22    24    1
    13    24    25   ar
    14    25    26   ar
    15    26    27   ar
    16    27    28   ar
    17    28    29   ar
    18    22    23    1
    19     5     6   ar
    20     6     7   ar
    21     7     8   ar
    22     8     9    1
    23     7    10    1
    24    10    11    1
    25    11    12   ar
    26    12    13   ar
    27    13    14   ar
    28    14    15   ar
    29     8     3   ar
    30    15    11   ar
    31    23    17    1
    32    15     6    1
    33    29    24   ar
@<TRIPOS>MOLECULE
*****
 29 33 0 0 0
SMALL
GASTEIGER

@<TRIPOS>ATOM
      1 O          62.2545   88.3957   12.2446 O.3     1  UNL1       -0.4630
      2 C          62.2040   85.5671    7.8860 C.3     1  UNL1        0.0308
      3 C          62.5068   85.6926    9.3498 C.ar    1  UNL1       -0.0231
      4 C          62.2293   86.9814   10.0653 C.ar    1  UNL1        0.0324
      5 C          62.5320   87.1068   11.5291 C.ar    1  UNL1        0.1402
      6 C          63.1123   85.9436   12.2774 C.ar    1  UNL1        0.0479
      7 C          63.3898   84.6547   11.5618 C.ar    1  UNL1       -0.0171
      8 C          63.0871   84.5292   10.0981 C.ar    1  UNL1       -0.0292
      9 C          63.3646   83.2404    9.3826 C.3     1  UNL1        0.0304
     10 C          63.9604   83.6866   12.5554 C.3     1  UNL1        0.0606
     11 C          64.0356   84.3770   13.8849 C.ar    1  UNL1        0.0308
     12 S          64.4347   84.2054   15.3206 S.2     1  UNL1       -0.0685
     13 C          64.1572   85.4942   16.0361 C.ar    1  UNL1        0.1342
     14 N          63.5865   86.4624   15.0426 N.ar    1  UNL1       -0.2365
     15 C          63.5114   85.7719   13.7130 C.ar    1  UNL1        0.0868
     16 C          61.9875   89.6463   11.4606 C.3     1  UNL1        0.3201
     17 P          63.0873   90.6419   11.2392 P.3     1  UNL1        0.3872
     18 O          62.5360   90.5491    9.8472 O.2     1  UNL1       -0.2539
     19 O          63.2567   90.3891   12.7080 O.3     1  UNL1       -0.2916
     20 C          64.3344   91.0996   13.4719 C.3     1  UNL1        0.1543
     21 C          65.2428   92.0630   12.7671 C.3     1  UNL1        0.0673
     22 C          65.0735   92.3158   11.2983 C.3     1  UNL1        0.1502
     23 O          63.9957   91.6053   10.5343 O.3     1  UNL1       -0.2895
     24 C          65.9818   93.2792   10.5935 C.ar    1  UNL1        0.0243
     25 C          67.2154   92.7782    9.9024 C.ar    1  UNL1        0.0012
     26 C          68.1237   93.7416    9.1976 C.ar    1  UNL1        0.0204
     27 C          67.7986   95.2058    9.1837 C.ar    1  UNL1        0.0989
     28 N          66.5650   95.7068    9.8747 N.ar    1  UNL1       -0.2426
     29 C          65.6567   94.7434   10.5796 C.ar    1  UNL1        0.0969
@<TRIPOS>BOND
     1     2     3    1
     2     3     4   ar
     3     4     5   ar
     4     5     1    1
     5     1    16    1
     6    17    16    1
     7    17    18    2
     8    17    19    1
     9    19    20    1
    10    20    21    1
    11    21    22    1
    12    22    24    1
    13    24    25   ar
    14    25    26   ar
    15    26    27   ar
    16    27    28   ar
    17    28    29   ar
    18    22    23    1
    19     5     6   ar
    20     6     7   ar
    21     7     8   ar
    22     8     9    1
    23     7    10    1
    24    10    11    1
    25    11    12   ar
    26    12    13   ar
    27    13    14   ar
    28    14    15   ar
    29     8     3   ar
    30    15    11   ar
    31    23    17    1
    32    15     6    1
    33    29    24   ar
@<TRIPOS>MOLECULE
*****
 29 33 0 0 0
SMALL
GASTEIGER

@<TRIPOS>ATOM
      1 O          61.8437   87.6917   11.9816 O.3     1  UNL1       -0.4630
      2 C          62.7827   84.9314    7.6805 C.3     1  UNL1        0.0308
      3 C          62.8761   85.0887    9.1693 C.ar    1  UNL1       -0.0231
      4 C          62.3132   86.3116    9.8311 C.ar    1  UNL1        0.0324
      5 C          62.4066   86.4688   11.3199 C.ar    1  UNL1        0.1402
      6 C          63.0628   85.4034   12.1470 C.ar    1  UNL1        0.0479
      7 C          63.6257   84.1805   11.4852 C.ar    1  UNL1       -0.0171
      8 C          63.5323   84.0232    9.9964 C.ar    1  UNL1       -0.0292
      9 C          64.0952   82.8003    9.3347 C.3     1  UNL1        0.0304
     10 C          64.2112   83.3040   12.5524 C.3     1  UNL1        0.0606
     11 C          64.0102   83.9851   13.8737 C.ar    1  UNL1        0.0308
     12 S          64.2479   83.8643   15.3498 S.2     1  UNL1       -0.0685
     13 C          63.6850   85.0871   16.0115 C.ar    1  UNL1        0.1342
     14 N          63.0995   85.9637   14.9443 N.ar    1  UNL1       -0.2365
     15 C          63.3004   85.2826   13.6231 C.ar    1  UNL1        0.0868
     16 C          62.2112   89.0549   11.4751 C.3     1  UNL1        0.3201
     17 P          63.2770   89.8506   12.1686 P.3     1  UNL1        0.3872
     18 O          62.9864   88.8271   13.2260 O.2     1  UNL1       -0.2539
     19 O          63.1975   90.5977   10.8704 O.3     1  UNL1       -0.2916
     20 C          64.0829   91.7850   10.6330 C.3     1  UNL1        0.1543
     21 C          65.0478   92.2252   11.6937 C.3     1  UNL1        0.0673
     22 C          65.1273   91.4781   12.9920 C.3     1  UNL1        0.1502
     23 O          64.2419   90.2907   13.2294 O.3     1  UNL1       -0.2895
     24 C          66.0921   91.9182   14.0528 C.ar    1  UNL1        0.0243
     25 C          67.5618   91.9664   13.7565 C.ar    1  UNL1        0.0012
     26 C          68.5267   92.4066   14.8173 C.ar    1  UNL1        0.0204
     27 C          68.0220   92.7984   16.1744 C.ar    1  UNL1        0.0989
     28 N          66.5522   92.7502   16.4706 N.ar    1  UNL1       -0.2426
     29 C          65.5874   92.3101   15.4098 C.ar    1  UNL1        0.0969
@<TRIPOS>BOND
     1     2     3    1
     2     3     4   ar
     3     4     5   ar
     4     5     1    1
     5     1    16    1
     6    17    16    1
     7    17    18    2
     8    17    19    1
     9    19    20    1
    10    20    21    1
    11    21    22    1
    12    22    24    1
    13    24    25   ar
    14    25    26   ar
    15    26    27   ar
    16    27    28   ar
    17    28    29   ar
    18    22    23    1
    19     5     6   ar
    20     6     7   ar
    21     7     8   ar
    22     8     9    1
    23     7    10    1
    24    10    11    1
    25    11    12   ar
    26    12    13   ar
    27    13    14   ar
    28    14    15   ar
    29     8     3   ar
    30    15    11   ar
    31    23    17    1
    32    15     6    1
    33    29    24   ar
@<TRIPOS>MOLECULE
*****
 29 33 0 0 0
SMALL
GASTEIGER

@<TRIPOS>ATOM
      1 O          61.4645   88.7719   12.1901 O.3     1  UNL1       -0.4630
      2 C          64.1038   84.3362   12.7893 C.3     1  UNL1        0.0308
      3 C          63.2286   85.2247   11.9558 C.ar    1  UNL1       -0.0231
      4 C          62.7841   86.5541   12.4897 C.ar    1  UNL1        0.0324
      5 C          61.9089   87.4425   11.6561 C.ar    1  UNL1        0.1402
      6 C          61.4783   87.0016   10.2886 C.ar    1  UNL1        0.0479
      7 C          61.9229   85.6721    9.7547 C.ar    1  UNL1       -0.0171
      8 C          62.7980   84.7837   10.5883 C.ar    1  UNL1       -0.0292
      9 C          63.2425   83.4543   10.0543 C.3     1  UNL1        0.0304
     10 C          61.3432   85.5070    8.3811 C.3     1  UNL1        0.0606
     11 C          60.5404   86.7344    8.0661 C.ar    1  UNL1        0.0308
     12 S          59.6861   87.3909    7.0225 S.2     1  UNL1       -0.0685
     13 C          59.2416   88.7203    7.5565 C.ar    1  UNL1        0.1342
     14 N          59.8212   88.8854    8.9301 N.ar    1  UNL1       -0.2365
     15 C          60.6240   87.6580    9.2450 C.ar    1  UNL1        0.0868
     16 C          62.0360   90.0373   11.6224 C.3     1  UNL1        0.3201
     17 P          63.2742   90.6358   12.2212 P.3     1  UNL1        0.3872
     18 O          62.7634   89.8607   13.3996 O.2     1  UNL1       -0.2539
     19 O          63.3550   91.2030   10.8350 O.3     1  UNL1       -0.2916
     20 C          64.4966   92.0995   10.4568 C.3     1  UNL1        0.1543
     21 C          65.5574   92.4288   11.4649 C.3     1  UNL1        0.0673
     22 C          65.4766   91.8616   12.8512 C.3     1  UNL1        0.1502
     23 O          64.3349   90.9651   13.2294 O.3     1  UNL1       -0.2895
     24 C          66.5374   92.1909   13.8593 C.ar    1  UNL1        0.0243
     25 C          66.1506   92.5732   15.2573 C.ar    1  UNL1        0.0012
     26 C          67.2114   92.9025   16.2654 C.ar    1  UNL1        0.0204
     27 C          68.6588   92.8495   15.8757 C.ar    1  UNL1        0.0989
     28 N          69.0456   92.4672   14.4777 N.ar    1  UNL1       -0.2426
     29 C          67.9848   92.1379   13.4696 C.ar    1  UNL1        0.0969
@<TRIPOS>BOND
     1     2     3    1
     2     3     4   ar
     3     4     5   ar
     4     5     1    1
     5     1    16    1
     6    17    16    1
     7    17    18    2
     8    17    19    1
     9    19    20    1
    10    20    21    1
    11    21    22    1
    12    22    24    1
    13    24    25   ar
    14    25    26   ar
    15    26    27   ar
    16    27    28   ar
    17    28    29   ar
    18    22    23    1
    19     5     6   ar
    20     6     7   ar
    21     7     8   ar
    22     8     9    1
    23     7    10    1
    24    10    11    1
    25    11    12   ar
    26    12    13   ar
    27    13    14   ar
    28    14    15   ar
    29     8     3   ar
    30    15    11   ar
    31    23    17    1
    32    15     6    1
    33    29    24   ar
@<TRIPOS>MOLECULE
*****
 29 33 0 0 0
SMALL
GASTEIGER

@<TRIPOS>ATOM
      1 O          63.1928   89.4957   15.1922 O.3     1  UNL1       -0.4630
      2 C          61.5886   89.7426   10.2560 C.3     1  UNL1        0.0308
      3 C          62.4993   90.2132   11.3511 C.ar    1  UNL1       -0.0231
      4 C          62.3907   89.6191   12.7242 C.ar    1  UNL1        0.0324
      5 C          63.3015   90.0898   13.8192 C.ar    1  UNL1        0.1402
      6 C          64.3207   91.1545   13.5412 C.ar    1  UNL1        0.0479
      7 C          64.4294   91.7486   12.1681 C.ar    1  UNL1       -0.0171
      8 C          63.5187   91.2780   11.0731 C.ar    1  UNL1       -0.0292
      9 C          63.6273   91.8721    9.7000 C.3     1  UNL1        0.0304
     10 C          65.5227   92.7753   12.1925 C.3     1  UNL1        0.0606
     11 C          66.0898   92.8157   13.5806 C.ar    1  UNL1        0.0308
     12 S          67.1160   93.4752   14.4535 S.2     1  UNL1       -0.0685
     13 C          67.0074   92.8811   15.8265 C.ar    1  UNL1        0.1342
     14 N          65.9140   91.8544   15.8022 N.ar    1  UNL1       -0.2365
     15 C          65.3469   91.8140   14.4141 C.ar    1  UNL1        0.0868
     16 C          64.0822   88.3545   15.5882 C.3     1  UNL1        0.3201
     17 P          63.7482   86.9579   15.1545 P.3     1  UNL1        0.3872
     18 O          64.5341   87.4197   13.9632 O.2     1  UNL1       -0.2539
     19 O          63.0783   86.9812   16.4964 O.3     1  UNL1       -0.2916
     20 C          62.3474   85.7682   16.9909 C.3     1  UNL1        0.1543
     21 C          62.2864   84.5320   16.1435 C.3     1  UNL1        0.0673
     22 C          62.9564   84.5088   14.8016 C.3     1  UNL1        0.1502
     23 O          63.6873   85.7218   14.3071 O.3     1  UNL1       -0.2895
     24 C          62.8954   83.2726   13.9542 C.ar    1  UNL1        0.0243
     25 C          63.6022   83.2344   12.6316 C.ar    1  UNL1        0.0012
     26 C          63.5413   81.9982   11.7842 C.ar    1  UNL1        0.0204
     27 C          62.7736   80.8003   12.2591 C.ar    1  UNL1        0.0989
     28 N          62.0668   80.8385   13.5817 N.ar    1  UNL1       -0.2426
     29 C          62.1278   82.0747   14.4291 C.ar    1  UNL1        0.0969
@<TRIPOS>BOND
     1     2     3    1
     2     3     4   ar
     3     4     5   ar
     4     5     1    1
     5     1    16    1
     6    17    16    1
     7    17    18    2
     8    17    19    1
     9    19    20    1
    10    20    21    1
    11    21    22    1
    12    22    24    1
    13    24    25   ar
    14    25    26   ar
    15    26    27   ar
    16    27    28   ar
    17    28    29   ar
    18    22    23    1
    19     5     6   ar
    20     6     7   ar
    21     7     8   ar
    22     8     9    1
    23     7    10    1
    24    10    11    1
    25    11    12   ar
    26    12    13   ar
    27    13    14   ar
    28    14    15   ar
    29     8     3   ar
    30    15    11   ar
    31    23    17    1
    32    15     6    1
    33    29    24   ar
@<TRIPOS>MOLECULE
*****
 29 33 0 0 0
SMALL
GASTEIGER

@<TRIPOS>ATOM
      1 O          62.0750   90.2334   11.3072 O.3     1  UNL1       -0.4630
      2 C          66.1349   93.1461    9.8814 C.3     1  UNL1        0.0308
      3 C          65.3638   92.4253   10.9471 C.ar    1  UNL1       -0.0231
      4 C          64.1049   91.6897   10.5943 C.ar    1  UNL1        0.0324
      5 C          63.3338   90.9689   11.6600 C.ar    1  UNL1        0.1402
      6 C          63.8213   90.9835   13.0784 C.ar    1  UNL1        0.0479
      7 C          65.0802   91.7191   13.4312 C.ar    1  UNL1       -0.0171
      8 C          65.8514   92.4399   12.3655 C.ar    1  UNL1       -0.0292
      9 C          67.1101   93.1754   12.7184 C.3     1  UNL1        0.0304
     10 C          65.3134   91.5586   14.9043 C.3     1  UNL1        0.0606
     11 C          64.1988   90.7239   15.4619 C.ar    1  UNL1        0.0308
     12 S          63.6541   90.1088   16.7169 S.2     1  UNL1       -0.0685
     13 C          62.3953   89.3733   16.3640 C.ar    1  UNL1        0.1342
     14 N          62.1620   89.5338   14.8910 N.ar    1  UNL1       -0.2365
     15 C          63.2767   90.3685   14.3334 C.ar    1  UNL1        0.0868
     16 C          62.1179   89.1029   10.3221 C.3     1  UNL1        0.3201
     17 P          62.2574   87.6904   10.8071 P.3     1  UNL1        0.3872
     18 O          61.9778   88.3855   12.1066 O.2     1  UNL1       -0.2539
     19 O          62.4885   87.4858    9.3392 O.3     1  UNL1       -0.2916
     20 C          62.7620   86.1101    8.8076 C.3     1  UNL1        0.1543
     21 C          62.8045   84.9389    9.7439 C.3     1  UNL1        0.0673
     22 C          62.5734   85.1435   11.2118 C.3     1  UNL1        0.1502
     23 O          62.2998   86.5193   11.7434 O.3     1  UNL1       -0.2895
     24 C          62.6158   83.9724   12.1481 C.ar    1  UNL1        0.0243
     25 C          62.6771   82.5769   11.6014 C.ar    1  UNL1        0.0012
     26 C          62.7195   81.4058   12.5377 C.ar    1  UNL1        0.0204
     27 C          62.7007   81.6301   14.0207 C.ar    1  UNL1        0.0989
     28 N          62.6395   83.0256   14.5674 N.ar    1  UNL1       -0.2426
     29 C          62.5971   84.1967   13.6311 C.ar    1  UNL1        0.0969
@<TRIPOS>BOND
     1     2     3    1
     2     3     4   ar
     3     4     5   ar
     4     5     1    1
     5     1    16    1
     6    17    16    1
     7    17    18    2
     8    17    19    1
     9    19    20    1
    10    20    21    1
    11    21    22    1
    12    22    24    1
    13    24    25   ar
    14    25    26   ar
    15    26    27   ar
    16    27    28   ar
    17    28    29   ar
    18    22    23    1
    19     5     6   ar
    20     6     7   ar
    21     7     8   ar
    22     8     9    1
    23     7    10    1
    24    10    11    1
    25    11    12   ar
    26    12    13   ar
    27    13    14   ar
    28    14    15   ar
    29     8     3   ar
    30    15    11   ar
    31    23    17    1
    32    15     6    1
    33    29    24   ar
@<TRIPOS>MOLECULE
*****
 29 33 0 0 0
SMALL
GASTEIGER

@<TRIPOS>ATOM
      1 O          59.6102   92.6198    1.8713 O.3     1  UNL1       -0.4630
      2 C          64.2460   93.7764   -0.1712 C.3     1  UNL1        0.0308
      3 C          62.7742   93.5415   -0.3400 C.ar    1  UNL1       -0.0231
      4 C          61.9281   93.1981    0.8501 C.ar    1  UNL1        0.0324
      5 C          60.4562   92.9632    0.6812 C.ar    1  UNL1        0.1402
      6 C          59.8304   93.0717   -0.6776 C.ar    1  UNL1        0.0479
      7 C          60.6765   93.4152   -1.8677 C.ar    1  UNL1       -0.0171
      8 C          62.1483   93.6501   -1.6989 C.ar    1  UNL1       -0.0292
      9 C          62.9943   93.9935   -2.8890 C.3     1  UNL1        0.0304
     10 C          59.7860   93.4519   -3.0743 C.3     1  UNL1        0.0606
     11 C          58.3897   93.1312   -2.6300 C.ar    1  UNL1        0.0308
     12 S          56.9765   92.9557   -3.1011 S.2     1  UNL1       -0.0685
     13 C          56.1305   92.6122   -1.9110 C.ar    1  UNL1        0.1342
     14 N          57.0209   92.5755   -0.7044 N.ar    1  UNL1       -0.2365
     15 C          58.4172   92.8962   -1.1487 C.ar    1  UNL1        0.0868
     16 C          60.1298   92.8653    3.2568 C.3     1  UNL1        0.3201
     17 P          59.9426   91.8270    4.3231 P.3     1  UNL1        0.3872
     18 O          61.4376   91.8085    4.2010 O.2     1  UNL1       -0.2539
     19 O          58.5127   92.2062    4.0748 O.3     1  UNL1       -0.2916
     20 C          57.4148   91.5405    4.8504 C.3     1  UNL1        0.1543
     21 C          57.7468   90.4958    5.8743 C.3     1  UNL1        0.0673
     22 C          59.1767   90.1166    6.1225 C.3     1  UNL1        0.1502
     23 O          60.2747   90.7823    5.3469 O.3     1  UNL1       -0.2895
     24 C          59.5088   89.0719    7.1463 C.ar    1  UNL1        0.0243
     25 C          59.1608   87.6351    6.8918 C.ar    1  UNL1        0.0012
     26 C          59.4928   86.5903    7.9157 C.ar    1  UNL1        0.0204
     27 C          60.1728   86.9822    9.1939 C.ar    1  UNL1        0.0989
     28 N          60.5208   88.4190    9.4484 N.ar    1  UNL1       -0.2426
     29 C          60.1888   89.4637    8.4246 C.ar    1  UNL1        0.0969
@<TRIPOS>BOND
     1     2     3    1
     2     3     4   ar
     3     4     5   ar
     4     5     1    1
     5     1    16    1
     6    17    16    1
     7    17    18    2
     8    17    19    1
     9    19    20    1
    10    20    21    1
    11    21    22    1
    12    22    24    1
    13    24    25   ar
    14    25    26   ar
    15    26    27   ar
    16    27    28   ar
    17    28    29   ar
    18    22    23    1
    19     5     6   ar
    20     6     7   ar
    21     7     8   ar
    22     8     9    1
    23     7    10    1
    24    10    11    1
    25    11    12   ar
    26    12    13   ar
    27    13    14   ar
    28    14    15   ar
    29     8     3   ar
    30    15    11   ar
    31    23    17    1
    32    15     6    1
    33    29    24   ar
