@<TRIPOS>MOLECULE
*****
 45 50 0 0 0
SMALL
GASTEIGER

@<TRIPOS>ATOM
      1 N          60.2835   88.8725   10.3489 N.am    1  UNL1       -0.2222
      2 C          59.9301   89.9612    9.3792 C.2     1  UNL1        0.3219
      3 O          59.3847   91.3132    9.7321 O.2     1  UNL1       -0.2512
      4 N          60.2180   89.4603    7.9949 N.am    1  UNL1       -0.1907
      5 C          60.7492   88.0622    8.1089 C.2     1  UNL1        0.2529
      6 O          61.1667   87.1819    6.9685 O.2     1  UNL1       -0.2724
      7 C          60.7897   87.6988    9.5638 C.3     1  UNL1        0.1391
      8 C          60.7729   87.4789   11.0474 C.3     1  UNL1        0.0449
      9 C          61.2380   86.1715   11.6170 C.3     1  UNL1        0.0746
     10 N          61.7198   85.0841   10.7030 N.3     1  UNL1       -0.2676
     11 C          61.7366   85.3041    9.2194 C.3     1  UNL1        0.0746
     12 C          61.2715   86.6114    8.6497 C.3     1  UNL1        0.0449
     13 C          61.1951   89.4404   14.1693 C.ar    1  UNL1        0.2293
     14 C          61.3252   89.3681   12.6767 C.ar    1  UNL1        0.0924
     15 C          60.1534   88.9448   11.8414 C.ar    1  UNL1        0.1453
     16 N          58.8516   88.5937   12.4987 N.ar    1  UNL1       -0.2084
     17 C          58.7214   88.6660   13.9913 C.ar    1  UNL1        0.2027
     18 N          59.8933   89.0894   14.8266 N.ar    1  UNL1       -0.1892
     19 C          63.5792   90.4567   14.3502 C.3     1  UNL1        0.2542
     20 O          62.3668   89.8638   15.0047 O.3     1  UNL1       -0.4560
     21 C          60.0110   90.2236    6.7204 C.ar    1  UNL1        0.0622
     22 C          58.6247   90.5990    6.2878 C.ar    1  UNL1        0.0154
     23 C          58.4177   91.3623    5.0132 C.ar    1  UNL1        0.0013
     24 C          59.5970   91.7502    4.1712 C.ar    1  UNL1        0.0001
     25 C          60.9834   91.3747    4.6039 C.ar    1  UNL1        0.0013
     26 C          61.1903   90.6114    5.8785 C.ar    1  UNL1        0.0154
     27 C          59.3900   92.5135    2.8967 C.ar    1  UNL1        0.0000
     28 C          58.3811   92.0385    1.8934 C.ar    1  UNL1        0.0001
     29 C          58.1741   92.8018    0.6188 C.ar    1  UNL1        0.0045
     30 C          58.9760   94.0402    0.3476 C.ar    1  UNL1        0.0531
     31 C          59.9848   94.5152    1.3509 C.ar    1  UNL1        0.0045
     32 C          60.1919   93.7519    2.6254 C.ar    1  UNL1        0.0001
     33 C          58.7690   94.8035   -0.9269 C.2     1  UNL1        0.2427
     34 N          57.6914   95.8436   -1.0117 N.am    1  UNL1       -0.3253
     35 O          59.6395   94.5268   -2.1167 O.2     1  UNL1       -0.2704
     36 H          57.1200   96.0252   -0.2308 H       1  UNL1        0.1453
     37 H          57.5555   96.3445   -1.8482 H       1  UNL1        0.1453
     38 C          62.1849   83.7767   11.2727 C.3     1  UNL1        0.1183
     39 C          62.8839   83.7430   12.5994 C.ar    1  UNL1        0.0712
     40 N          63.7235   84.9074   13.0346 N.ar    1  UNL1       -0.2471
     41 C          64.4225   84.8736   14.3614 C.ar    1  UNL1        0.0985
     42 C          64.2820   83.6755   15.2529 C.ar    1  UNL1        0.0203
     43 C          63.4424   82.5111   14.8177 C.ar    1  UNL1       -0.0015
     44 C          62.7434   82.5449   13.4910 C.ar    1  UNL1       -0.0069
     45 C          61.9038   81.3805   13.0558 C.3     1  UNL1        0.0323
@<TRIPOS>BOND
     1    19    20    1
     2    20    13    1
     3    13    14   ar
     4    14    15   ar
     5    15     1    1
     6     1     2   am
     7     2     3    2
     8     2     4   am
     9     4    21    1
    10    21    22   ar
    11    22    23   ar
    12    23    24   ar
    13    24    27    1
    14    27    28   ar
    15    28    29   ar
    16    29    30   ar
    17    30    33    1
    18    33    34   am
    19    33    35    2
    20    30    31   ar
    21    31    32   ar
    22    24    25   ar
    23    25    26   ar
    24     4     5   am
    25     5     6    2
    26     5     7    1
    27     7     8    1
    28     8     9    1
    29     9    10    1
    30    10    38    1
    31    38    39    1
    32    39    40   ar
    33    40    41   ar
    34    41    42   ar
    35    42    43   ar
    36    43    44   ar
    37    44    45    1
    38    10    11    1
    39    11    12    1
    40    15    16   ar
    41    16    17   ar
    42    17    18   ar
    43    18    13   ar
    44     7     1    1
    45    44    39   ar
    46    26    21   ar
    47    12     7    1
    48    32    27   ar
    49    34    36    1
    50    34    37    1
@<TRIPOS>MOLECULE
*****
 45 50 0 0 0
SMALL
GASTEIGER

@<TRIPOS>ATOM
      1 N          64.1673   89.7294   13.9942 N.am    1  UNL1       -0.2222
      2 C          64.0363   88.2445   14.1623 C.2     1  UNL1        0.3219
      3 O          64.1429   87.4907   15.4548 O.2     1  UNL1       -0.2512
      4 N          63.7799   87.6459   12.8110 N.am    1  UNL1       -0.1907
      5 C          63.7524   88.7608   11.8078 C.2     1  UNL1        0.2529
      6 O          63.5254   88.6138   10.3324 O.2     1  UNL1       -0.2724
      7 C          63.9919   90.0484   12.5391 C.3     1  UNL1        0.1391
      8 C          64.2412   91.2502   13.4014 C.3     1  UNL1        0.0449
      9 C          64.2957   92.6168   12.7856 C.3     1  UNL1        0.0746
     10 N          64.1009   92.7817   11.3075 N.3     1  UNL1       -0.2676
     11 C          63.8516   91.5800   10.4452 C.3     1  UNL1        0.0746
     12 C          63.7971   90.2134   11.0609 C.3     1  UNL1        0.0449
     13 C          66.0311   92.3731   16.2936 C.ar    1  UNL1        0.2293
     14 C          65.7704   91.3814   15.1988 C.ar    1  UNL1        0.0924
     15 C          64.4281   90.7210   15.0891 C.ar    1  UNL1        0.1453
     16 N          63.3464   91.0523   16.0742 N.ar    1  UNL1       -0.2084
     17 C          63.6071   92.0439   17.1690 C.ar    1  UNL1        0.2027
     18 N          64.9495   92.7043   17.2787 N.ar    1  UNL1       -0.1892
     19 C          68.5627   92.4341   15.7135 C.3     1  UNL1        0.2542
     20 O          67.3733   93.0335   16.4034 O.3     1  UNL1       -0.4560
     21 C          63.5851   86.1885   12.5150 C.ar    1  UNL1        0.0622
     22 C          62.7297   85.7661   11.3574 C.ar    1  UNL1        0.0154
     23 C          62.5349   84.3085   11.0613 C.ar    1  UNL1        0.0013
     24 C          63.1955   83.2734   11.9228 C.ar    1  UNL1        0.0001
     25 C          64.0509   83.6958   13.0804 C.ar    1  UNL1        0.0013
     26 C          64.2456   85.1533   13.3764 C.ar    1  UNL1        0.0154
     27 C          63.0007   81.8158   11.6267 C.ar    1  UNL1        0.0000
     28 C          62.6656   80.8634   12.7361 C.ar    1  UNL1        0.0001
     29 C          62.4708   79.4059   12.4400 C.ar    1  UNL1        0.0045
     30 C          62.6112   78.9009   11.0345 C.ar    1  UNL1        0.0531
     31 C          62.9462   79.8533    9.9252 C.ar    1  UNL1        0.0045
     32 C          63.1410   81.3107   10.2212 C.ar    1  UNL1        0.0001
     33 C          62.4164   77.4433   10.7384 C.2     1  UNL1        0.2427
     34 N          63.5828   76.6023   10.3116 N.am    1  UNL1       -0.3253
     35 O          61.0552   76.8268   10.8691 O.2     1  UNL1       -0.2704
     36 H          64.4762   77.0069   10.2259 H       1  UNL1        0.1453
     37 H          63.4550   75.6456   10.1173 H       1  UNL1        0.1453
     38 C          64.1554   94.1485   10.6917 C.3     1  UNL1        0.1183
     39 C          65.4129   94.6208   10.0243 C.ar    1  UNL1        0.0712
     40 N          66.6270   93.7402   10.0032 N.ar    1  UNL1       -0.2471
     41 C          67.8846   94.2126    9.3358 C.ar    1  UNL1        0.0985
     42 C          67.9280   95.5655    8.6895 C.ar    1  UNL1        0.0203
     43 C          66.7139   96.4461    8.7106 C.ar    1  UNL1       -0.0015
     44 C          65.4564   95.9738    9.3780 C.ar    1  UNL1       -0.0069
     45 C          64.2422   96.8544    9.3991 C.3     1  UNL1        0.0323
@<TRIPOS>BOND
     1    19    20    1
     2    20    13    1
     3    13    14   ar
     4    14    15   ar
     5    15     1    1
     6     1     2   am
     7     2     3    2
     8     2     4   am
     9     4    21    1
    10    21    22   ar
    11    22    23   ar
    12    23    24   ar
    13    24    27    1
    14    27    28   ar
    15    28    29   ar
    16    29    30   ar
    17    30    33    1
    18    33    34   am
    19    33    35    2
    20    30    31   ar
    21    31    32   ar
    22    24    25   ar
    23    25    26   ar
    24     4     5   am
    25     5     6    2
    26     5     7    1
    27     7     8    1
    28     8     9    1
    29     9    10    1
    30    10    38    1
    31    38    39    1
    32    39    40   ar
    33    40    41   ar
    34    41    42   ar
    35    42    43   ar
    36    43    44   ar
    37    44    45    1
    38    10    11    1
    39    11    12    1
    40    15    16   ar
    41    16    17   ar
    42    17    18   ar
    43    18    13   ar
    44     7     1    1
    45    44    39   ar
    46    26    21   ar
    47    12     7    1
    48    32    27   ar
    49    34    36    1
    50    34    37    1
@<TRIPOS>MOLECULE
*****
 45 50 0 0 0
SMALL
GASTEIGER

@<TRIPOS>ATOM
      1 N          60.1496   88.9011   10.0700 N.am    1  UNL1       -0.2222
      2 C          59.8106   89.9989    9.1055 C.2     1  UNL1        0.3219
      3 O          59.2109   91.3279    9.4576 O.2     1  UNL1       -0.2512
      4 N          60.1767   89.5341    7.7270 N.am    1  UNL1       -0.1907
      5 C          60.7419   88.1493    7.8396 C.2     1  UNL1        0.2529
      6 O          61.2369   87.3040    6.7037 O.2     1  UNL1       -0.2724
      7 C          60.7252   87.7580    9.2877 C.3     1  UNL1        0.1391
      8 C          60.6458   87.5079   10.7645 C.3     1  UNL1        0.0449
      9 C          61.1212   86.2028   11.3307 C.3     1  UNL1        0.0746
     10 N          61.6758   85.1477   10.4200 N.3     1  UNL1       -0.2676
     11 C          61.7552   85.3978    8.9432 C.3     1  UNL1        0.0746
     12 C          61.2798   86.7030    8.3770 C.3     1  UNL1        0.0449
     13 C          58.4283   88.5737   13.6309 C.ar    1  UNL1        0.2293
     14 C          58.6296   88.5350   12.1449 C.ar    1  UNL1        0.0924
     15 C          59.9484   88.9398   11.5559 C.ar    1  UNL1        0.1453
     16 N          61.0659   89.3832   12.4529 N.ar    1  UNL1       -0.2084
     17 C          60.8648   89.4218   13.9387 C.ar    1  UNL1        0.2027
     18 N          59.5459   89.0171   14.5278 N.ar    1  UNL1       -0.1892
     19 C          55.9787   87.7658   13.3208 C.3     1  UNL1        0.2542
     20 O          57.1096   88.1690   14.2199 O.3     1  UNL1       -0.4560
     21 C          60.0073   90.3168    6.4588 C.ar    1  UNL1        0.0622
     22 C          58.6387   90.7449    6.0188 C.ar    1  UNL1        0.0154
     23 C          58.4693   91.5277    4.7504 C.ar    1  UNL1        0.0013
     24 C          59.6685   91.8823    3.9221 C.ar    1  UNL1        0.0001
     25 C          61.0372   91.4542    4.3621 C.ar    1  UNL1        0.0013
     26 C          61.2065   90.6715    5.6305 C.ar    1  UNL1        0.0154
     27 C          59.4992   92.6651    2.6538 C.ar    1  UNL1        0.0000
     28 C          60.1284   94.0200    2.5190 C.ar    1  UNL1        0.0001
     29 C          59.9590   94.8028    1.2506 C.ar    1  UNL1        0.0045
     30 C          59.1603   94.2305    0.1172 C.ar    1  UNL1        0.0531
     31 C          58.5311   92.8755    0.2520 C.ar    1  UNL1        0.0045
     32 C          58.7005   92.0928    1.5203 C.ar    1  UNL1        0.0001
     33 C          58.9909   95.0132   -1.1511 C.2     1  UNL1        0.2427
     34 N          59.8925   94.7502   -2.3209 N.am    1  UNL1       -0.3253
     35 O          57.9201   96.0589   -1.2498 O.2     1  UNL1       -0.2704
     36 H          60.5953   94.0638   -2.2561 H       1  UNL1        0.1453
     37 H          59.7813   95.2639   -3.1533 H       1  UNL1        0.1453
     38 C          62.1512   83.8425   10.9863 C.3     1  UNL1        0.1183
     39 C          62.8558   83.8115   12.3101 C.ar    1  UNL1        0.0712
     40 N          63.4507   85.0684   12.8727 N.ar    1  UNL1       -0.2471
     41 C          64.1554   85.0373   14.1966 C.ar    1  UNL1        0.0985
     42 C          64.2652   83.7495   14.9578 C.ar    1  UNL1        0.0203
     43 C          63.6703   82.4927   14.3952 C.ar    1  UNL1       -0.0015
     44 C          62.9656   82.5237   13.0714 C.ar    1  UNL1       -0.0069
     45 C          62.3707   81.2669   12.5088 C.3     1  UNL1        0.0323
@<TRIPOS>BOND
     1    19    20    1
     2    20    13    1
     3    13    14   ar
     4    14    15   ar
     5    15     1    1
     6     1     2   am
     7     2     3    2
     8     2     4   am
     9     4    21    1
    10    21    22   ar
    11    22    23   ar
    12    23    24   ar
    13    24    27    1
    14    27    28   ar
    15    28    29   ar
    16    29    30   ar
    17    30    33    1
    18    33    34   am
    19    33    35    2
    20    30    31   ar
    21    31    32   ar
    22    24    25   ar
    23    25    26   ar
    24     4     5   am
    25     5     6    2
    26     5     7    1
    27     7     8    1
    28     8     9    1
    29     9    10    1
    30    10    38    1
    31    38    39    1
    32    39    40   ar
    33    40    41   ar
    34    41    42   ar
    35    42    43   ar
    36    43    44   ar
    37    44    45    1
    38    10    11    1
    39    11    12    1
    40    15    16   ar
    41    16    17   ar
    42    17    18   ar
    43    18    13   ar
    44     7     1    1
    45    44    39   ar
    46    26    21   ar
    47    12     7    1
    48    32    27   ar
    49    34    36    1
    50    34    37    1
