@<TRIPOS>MOLECULE
*****
 33 38 0 0 0
SMALL
GASTEIGER

@<TRIPOS>ATOM
      1 N          63.4388   86.1679   13.4421 N.ar    1  UNL1       -0.3090
      2 C          62.5976   85.0643   12.8726 C.ar    1  UNL1        0.1154
      3 C          61.8083   85.6266   11.7278 C.ar    1  UNL1        0.0263
      4 C          62.1616   87.0779   11.5897 C.ar    1  UNL1        0.0532
      5 C          61.6959   88.1379   10.6360 C.ar    1  UNL1        0.0847
      6 C          62.2380   89.5325   10.7419 C.ar    1  UNL1        0.1304
      7 N          61.5964   90.3619    9.6692 N.ar    1  UNL1       -0.2211
      8 C          60.6579   89.4798    8.9004 C.ar    1  UNL1        0.1787
      9 N          60.7194   88.1053    9.4979 N.ar    1  UNL1       -0.3069
     10 C          59.9410   86.9084    9.0381 C.3     1  UNL1        0.1320
     11 C          63.2457   89.8671   11.8014 C.ar    1  UNL1        0.1544
     12 N          63.7113   88.8070   12.7550 N.ar    1  UNL1       -0.2118
     13 C          63.1693   87.4125   12.6492 C.ar    1  UNL1        0.1468
     14 C          62.5536   83.6471   13.3621 C.2     1  UNL1        0.2649
     15 O          61.9824   83.3381   14.7142 O.2     1  UNL1       -0.2683
     16 N          63.0806   82.5389   12.4994 N.am    1  UNL1       -0.2782
     17 C          63.0365   81.1217   12.9890 C.3     1  UNL1        0.0757
     18 C          63.5001   80.0624   13.9444 C.3     1  UNL1        0.0215
     19 C          62.4964   79.7264   12.8815 C.3     1  UNL1        0.0215
     20 C          63.6517   82.8479   11.1473 C.3     1  UNL1        0.0757
     21 C          64.6714   82.5896   10.0779 C.3     1  UNL1        0.0215
     22 C          63.6213   83.6414    9.8748 C.3     1  UNL1        0.0215
     23 C          63.8499   86.0040   16.0022 C.3     1  UNL1        0.0265
     24 C          64.3836   86.0482   14.6010 C.3     1  UNL1        0.1077
     25 N          63.7878   91.2618   11.9073 N.pl3   1  UNL1       -0.2769
     26 H          63.6004   91.9180   11.1977 H       1  UNL1        0.1555
     27 C          64.6153   91.6566   13.0944 C.ar    1  UNL1        0.1640
     28 N          64.1671   91.6424   14.5257 N.ar    1  UNL1       -0.2286
     29 C          65.3112   92.1120   15.3744 C.ar    1  UNL1        0.0633
     30 C          65.3017   92.2525   16.8679 C.3     1  UNL1        0.0524
     31 C          66.4666   92.4165   14.4677 C.ar    1  UNL1        0.0238
     32 C          67.8154   92.9149   14.8950 C.3     1  UNL1        0.0395
     33 S          66.0365   92.1350   13.0585 S.2     1  UNL1       -0.0561
@<TRIPOS>BOND
     1    23    24    1
     2    24     1    1
     3     1     2   ar
     4     2    14    1
     5    14    15    2
     6    14    16   am
     7    16    17    1
     8    17    18    1
     9    18    19    1
    10    16    20    1
    11    20    21    1
    12    21    22    1
    13     2     3   ar
    14     3     4   ar
    15     4     5   ar
    16     5     6   ar
    17     6     7   ar
    18     7     8   ar
    19     8     9   ar
    20     9    10    1
    21     6    11   ar
    22    11    25    1
    23    25    27    1
    24    27    28   ar
    25    28    29   ar
    26    29    30    1
    27    29    31   ar
    28    31    32    1
    29    31    33   ar
    30    11    12   ar
    31    12    13   ar
    32    13     1   ar
    33    19    17    1
    34    22    20    1
    35    13     4   ar
    36     9     5   ar
    37    33    27   ar
    38    25    26    1
@<TRIPOS>MOLECULE
*****
 33 38 0 0 0
SMALL
GASTEIGER

@<TRIPOS>ATOM
      1 N          63.4541   85.8586   12.7683 N.ar    1  UNL1       -0.3090
      2 C          62.7274   84.8177   11.9694 C.ar    1  UNL1        0.1154
      3 C          61.8016   85.5226   11.0228 C.ar    1  UNL1        0.0263
      4 C          61.9562   86.9992   11.2367 C.ar    1  UNL1        0.0532
      5 C          61.2988   88.1815   10.5885 C.ar    1  UNL1        0.0847
      6 C          61.6629   89.5715   11.0191 C.ar    1  UNL1        0.1304
      7 N          60.8536   90.5362   10.2039 N.ar    1  UNL1       -0.2211
      8 C          59.9895   89.7423    9.2695 C.ar    1  UNL1        0.1787
      9 N          60.2646   88.2871    9.5072 N.ar    1  UNL1       -0.3069
     10 C          59.6189   87.1390    8.7896 C.3     1  UNL1        0.1320
     11 C          62.6842   89.7792   12.0978 C.ar    1  UNL1        0.1544
     12 N          63.3415   88.5969   12.7460 N.ar    1  UNL1       -0.2118
     13 C          62.9775   87.2069   12.3154 C.ar    1  UNL1        0.1468
     14 C          62.8967   83.3326   12.0950 C.2     1  UNL1        0.2649
     15 O          63.2751   82.5167   10.8946 O.2     1  UNL1       -0.2683
     16 N          62.6878   82.6634   13.4211 N.am    1  UNL1       -0.2782
     17 C          62.8571   81.1783   13.5467 C.3     1  UNL1        0.0757
     18 C          63.6663   79.9961   13.9910 C.3     1  UNL1        0.0215
     19 C          62.3411   79.7882   13.3198 C.3     1  UNL1        0.0215
     20 C          62.3094   83.4794   14.6216 C.3     1  UNL1        0.0757
     21 C          62.5100   83.8379   16.0642 C.3     1  UNL1        0.0215
     22 C          61.4537   84.5340   15.2582 C.3     1  UNL1        0.0215
     23 C          64.6198   86.5462   14.9861 C.3     1  UNL1        0.0265
     24 C          64.4778   85.5973   13.8331 C.3     1  UNL1        0.1077
     25 N          63.0483   91.1692   12.5285 N.pl3   1  UNL1       -0.2769
     26 H          62.3561   91.7707   12.8869 H       1  UNL1        0.1555
     27 C          64.4668   91.6428   12.4129 C.ar    1  UNL1        0.1640
     28 N          65.5114   91.5686   13.4868 N.ar    1  UNL1       -0.2286
     29 C          66.7800   92.1537   12.9407 C.ar    1  UNL1        0.0633
     30 C          68.0808   92.2807   13.6767 C.3     1  UNL1        0.0524
     31 C          66.5194   92.5896   11.5293 C.ar    1  UNL1        0.0238
     32 C          67.5139   93.2291   10.6061 C.3     1  UNL1        0.0395
     33 S          65.0898   92.2739   11.2031 S.2     1  UNL1       -0.0561
@<TRIPOS>BOND
     1    23    24    1
     2    24     1    1
     3     1     2   ar
     4     2    14    1
     5    14    15    2
     6    14    16   am
     7    16    17    1
     8    17    18    1
     9    18    19    1
    10    16    20    1
    11    20    21    1
    12    21    22    1
    13     2     3   ar
    14     3     4   ar
    15     4     5   ar
    16     5     6   ar
    17     6     7   ar
    18     7     8   ar
    19     8     9   ar
    20     9    10    1
    21     6    11   ar
    22    11    25    1
    23    25    27    1
    24    27    28   ar
    25    28    29   ar
    26    29    30    1
    27    29    31   ar
    28    31    32    1
    29    31    33   ar
    30    11    12   ar
    31    12    13   ar
    32    13     1   ar
    33    19    17    1
    34    22    20    1
    35    13     4   ar
    36     9     5   ar
    37    33    27   ar
    38    25    26    1
@<TRIPOS>MOLECULE
*****
 33 38 0 0 0
SMALL
GASTEIGER

@<TRIPOS>ATOM
      1 N          63.7573   86.6815   13.8293 N.ar    1  UNL1       -0.3090
      2 C          62.8713   85.7181   13.0966 C.ar    1  UNL1        0.1154
      3 C          62.2533   86.4450   11.9392 C.ar    1  UNL1        0.0263
      4 C          62.7572   87.8577   11.9566 C.ar    1  UNL1        0.0532
      5 C          62.4898   89.0298   11.0597 C.ar    1  UNL1        0.0847
      6 C          63.1519   90.3482   11.3309 C.ar    1  UNL1        0.1304
      7 N          62.6992   91.3190   10.2808 N.ar    1  UNL1       -0.2211
      8 C          61.7573   90.6005    9.3606 C.ar    1  UNL1        0.1787
      9 N          61.6279   89.1858    9.8420 N.ar    1  UNL1       -0.3069
     10 C          60.7846   88.1150    9.2156 C.3     1  UNL1        0.1320
     11 C          64.0814   90.4944   12.4990 C.ar    1  UNL1        0.1544
     12 N          64.3488   89.3222   13.3959 N.ar    1  UNL1       -0.2118
     13 C          63.6868   88.0039   13.1248 C.ar    1  UNL1        0.1468
     14 C          62.6435   84.2802   13.4579 C.2     1  UNL1        0.2649
     15 O          62.1436   83.9207   14.8257 O.2     1  UNL1       -0.2683
     16 N          62.9156   83.2018   12.4514 N.am    1  UNL1       -0.2782
     17 C          62.6877   81.7638   12.8129 C.3     1  UNL1        0.0757
     18 C          62.2689   80.7261   13.8116 C.3     1  UNL1        0.0215
     19 C          62.7120   80.3111   12.4399 C.3     1  UNL1        0.0215
     20 C          63.4155   83.5612   11.0837 C.3     1  UNL1        0.0757
     21 C          63.2570   84.3233    9.8015 C.3     1  UNL1        0.0215
     22 C          64.4398   83.4218    9.9969 C.3     1  UNL1        0.0215
     23 C          65.7452   85.4474   14.9587 C.3     1  UNL1        0.0265
     24 C          64.5710   86.3762   15.0519 C.3     1  UNL1        0.1077
     25 N          64.7436   91.8128   12.7703 N.pl3   1  UNL1       -0.2769
     26 H          64.5967   92.2698   13.6298 H       1  UNL1        0.1555
     27 C          65.6294   92.4348   11.7319 C.ar    1  UNL1        0.1640
     28 N          65.3501   93.7017   10.9789 N.ar    1  UNL1       -0.2286
     29 C          66.4983   93.9490   10.0459 C.ar    1  UNL1        0.0633
     30 C          66.6338   95.1070    9.1020 C.3     1  UNL1        0.0524
     31 C          67.4872   92.8350   10.2222 C.ar    1  UNL1        0.0238
     32 C          68.7853   92.6834    9.4859 C.3     1  UNL1        0.0395
     33 S          66.9502   91.8992   11.2643 S.2     1  UNL1       -0.0561
@<TRIPOS>BOND
     1    23    24    1
     2    24     1    1
     3     1     2   ar
     4     2    14    1
     5    14    15    2
     6    14    16   am
     7    16    17    1
     8    17    18    1
     9    18    19    1
    10    16    20    1
    11    20    21    1
    12    21    22    1
    13     2     3   ar
    14     3     4   ar
    15     4     5   ar
    16     5     6   ar
    17     6     7   ar
    18     7     8   ar
    19     8     9   ar
    20     9    10    1
    21     6    11   ar
    22    11    25    1
    23    25    27    1
    24    27    28   ar
    25    28    29   ar
    26    29    30    1
    27    29    31   ar
    28    31    32    1
    29    31    33   ar
    30    11    12   ar
    31    12    13   ar
    32    13     1   ar
    33    19    17    1
    34    22    20    1
    35    13     4   ar
    36     9     5   ar
    37    33    27   ar
    38    25    26    1
@<TRIPOS>MOLECULE
*****
 33 38 0 0 0
SMALL
GASTEIGER

@<TRIPOS>ATOM
      1 N          65.5154   92.2128   12.5802 N.ar    1  UNL1       -0.3090
      2 C          65.0569   92.7870   11.2725 C.ar    1  UNL1        0.1154
      3 C          64.0564   91.8417   10.6765 C.ar    1  UNL1        0.0263
      4 C          63.8964   90.6832   11.6158 C.ar    1  UNL1        0.0532
      5 C          63.0462   89.4492   11.5518 C.ar    1  UNL1        0.0847
      6 C          63.0976   88.4444   12.6644 C.ar    1  UNL1        0.1304
      7 N          62.1516   87.3303   12.3271 N.ar    1  UNL1       -0.2211
      8 C          61.5154   87.6466   11.0060 C.ar    1  UNL1        0.1787
      9 N          62.0683   88.9561   10.5269 N.ar    1  UNL1       -0.3069
     10 C          61.7067   89.6506    9.2474 C.3     1  UNL1        0.1320
     11 C          63.9994   88.6737   13.8410 C.ar    1  UNL1        0.1544
     12 N          64.8496   89.9078   13.9049 N.ar    1  UNL1       -0.2118
     13 C          64.7981   90.9125   12.7924 C.ar    1  UNL1        0.1468
     14 C          65.5181   94.0796   10.6671 C.2     1  UNL1        0.2649
     15 O          64.6753   95.3132   10.8008 O.2     1  UNL1       -0.2683
     16 N          66.8221   94.1386    9.9281 N.am    1  UNL1       -0.2782
     17 C          67.2832   95.4313    9.3227 C.3     1  UNL1        0.0757
     18 C          67.7277   96.8549    9.4824 C.3     1  UNL1        0.0215
     19 C          67.6374   96.2465    8.1144 C.3     1  UNL1        0.0215
     20 C          67.6649   92.9050    9.7944 C.3     1  UNL1        0.0757
     21 C          68.4730   91.9697    8.9446 C.3     1  UNL1        0.0215
     22 C          68.3165   91.7037   10.4125 C.3     1  UNL1        0.0215
     23 C          67.7135   92.0436   13.9550 C.3     1  UNL1        0.0265
     24 C          66.5155   92.8304   13.5121 C.3     1  UNL1        0.1077
     25 N          64.0509   87.6689   14.9536 N.pl3   1  UNL1       -0.2769
     26 H          64.2145   87.9659   15.8779 H       1  UNL1        0.1555
     27 C          63.8531   86.2118   14.6580 C.ar    1  UNL1        0.1640
     28 N          62.7659   85.3394   15.2120 N.ar    1  UNL1       -0.2286
     29 C          62.9487   83.9596   14.6528 C.ar    1  UNL1        0.0633
     30 C          62.0832   82.7690   14.9424 C.3     1  UNL1        0.0524
     31 C          64.1488   83.9791   13.7533 C.ar    1  UNL1        0.0238
     32 C          64.6943   82.8117   12.9853 C.3     1  UNL1        0.0395
     33 S          64.7078   85.3711   13.7565 S.2     1  UNL1       -0.0561
@<TRIPOS>BOND
     1    23    24    1
     2    24     1    1
     3     1     2   ar
     4     2    14    1
     5    14    15    2
     6    14    16   am
     7    16    17    1
     8    17    18    1
     9    18    19    1
    10    16    20    1
    11    20    21    1
    12    21    22    1
    13     2     3   ar
    14     3     4   ar
    15     4     5   ar
    16     5     6   ar
    17     6     7   ar
    18     7     8   ar
    19     8     9   ar
    20     9    10    1
    21     6    11   ar
    22    11    25    1
    23    25    27    1
    24    27    28   ar
    25    28    29   ar
    26    29    30    1
    27    29    31   ar
    28    31    32    1
    29    31    33   ar
    30    11    12   ar
    31    12    13   ar
    32    13     1   ar
    33    19    17    1
    34    22    20    1
    35    13     4   ar
    36     9     5   ar
    37    33    27   ar
    38    25    26    1
@<TRIPOS>MOLECULE
*****
 33 38 0 0 0
SMALL
GASTEIGER

@<TRIPOS>ATOM
      1 N          62.6676   87.1318   10.6614 N.ar    1  UNL1       -0.3090
      2 C          62.7006   86.1555   11.7997 C.ar    1  UNL1        0.1154
      3 C          63.0928   86.9025   13.0398 C.ar    1  UNL1        0.0263
      4 C          63.3022   88.3405   12.6681 C.ar    1  UNL1        0.0532
      5 C          63.6981   89.5393   13.4782 C.ar    1  UNL1        0.0847
      6 C          63.8313   90.8797   12.8183 C.ar    1  UNL1        0.1304
      7 N          64.2342   91.8744   13.8663 N.ar    1  UNL1       -0.2211
      8 C          64.3500   91.1486   15.1739 C.ar    1  UNL1        0.1787
      9 N          64.0187   89.7054   14.9340 N.ar    1  UNL1       -0.3069
     10 C          64.0096   88.6192   15.9684 C.3     1  UNL1        0.1320
     11 C          63.5685   91.0215   11.3483 C.ar    1  UNL1        0.1544
     12 N          63.1725   89.8227   10.5382 N.ar    1  UNL1       -0.2118
     13 C          63.0394   88.4823   11.1981 C.ar    1  UNL1        0.1468
     14 C          62.3951   84.6895   11.7129 C.2     1  UNL1        0.2649
     15 O          61.6004   84.1561   10.5580 O.2     1  UNL1       -0.2683
     16 N          62.8843   83.7569   12.7811 N.am    1  UNL1       -0.2782
     17 C          62.5787   82.2909   12.6942 C.3     1  UNL1        0.0757
     18 C          61.9176   81.0664   13.2539 C.3     1  UNL1        0.0215
     19 C          62.7107   80.9763   11.9839 C.3     1  UNL1        0.0215
     20 C          63.6790   84.2903   13.9360 C.3     1  UNL1        0.0757
     21 C          64.9771   84.7862   14.5008 C.3     1  UNL1        0.0215
     22 C          63.7575   84.7183   15.3714 C.3     1  UNL1        0.0215
     23 C          60.9248   87.0266    8.7373 C.3     1  UNL1        0.0265
     24 C          62.3232   86.8135    9.2365 C.3     1  UNL1        0.1077
     25 N          63.7017   92.3619   10.6883 N.pl3   1  UNL1       -0.2769
     26 H          62.8969   92.8851   10.4698 H       1  UNL1        0.1555
     27 C          65.0611   92.9052   10.3614 C.ar    1  UNL1        0.1640
     28 N          66.3031   92.0953   10.1348 N.ar    1  UNL1       -0.2286
     29 C          67.4267   93.0434    9.8370 C.ar    1  UNL1        0.0633
     30 C          68.8484   92.6625    9.5475 C.3     1  UNL1        0.0524
     31 C          66.8791   94.4392    9.8797 C.ar    1  UNL1        0.0238
     32 C          67.6570   95.6993    9.6403 C.3     1  UNL1        0.0395
     33 S          65.4171   94.3538   10.2038 S.2     1  UNL1       -0.0561
@<TRIPOS>BOND
     1    23    24    1
     2    24     1    1
     3     1     2   ar
     4     2    14    1
     5    14    15    2
     6    14    16   am
     7    16    17    1
     8    17    18    1
     9    18    19    1
    10    16    20    1
    11    20    21    1
    12    21    22    1
    13     2     3   ar
    14     3     4   ar
    15     4     5   ar
    16     5     6   ar
    17     6     7   ar
    18     7     8   ar
    19     8     9   ar
    20     9    10    1
    21     6    11   ar
    22    11    25    1
    23    25    27    1
    24    27    28   ar
    25    28    29   ar
    26    29    30    1
    27    29    31   ar
    28    31    32    1
    29    31    33   ar
    30    11    12   ar
    31    12    13   ar
    32    13     1   ar
    33    19    17    1
    34    22    20    1
    35    13     4   ar
    36     9     5   ar
    37    33    27   ar
    38    25    26    1
