@<TRIPOS>MOLECULE
*****
 37 41 0 0 0
SMALL
GASTEIGER

@<TRIPOS>ATOM
      1 C          63.4544   91.0405   11.4355 C.3     1  UNL1        0.0799
      2 C          63.7555   91.9666   10.2946 C.3     1  UNL1        0.0178
      3 C          64.9312   92.8948   10.3724 C.3     1  UNL1        0.0029
      4 C          65.8057   92.8970   11.5911 C.3     1  UNL1        0.0178
      5 C          65.5046   91.9710   12.7320 C.3     1  UNL1        0.0795
      6 N          64.3289   91.0427   12.6542 N.3     1  UNL1       -0.1583
      7 C          62.2787   90.1122   11.3578 C.3     1  UNL1        0.0240
      8 C          60.9053   89.5546   11.5879 C.3     1  UNL1        0.0019
      9 C          61.3010   90.8574   12.2174 C.3     1  UNL1        0.0019
     10 C          62.8480   89.0446   10.4711 C.3     1  UNL1        0.0894
     11 C          62.3519   85.4519   11.8538 C.ar    1  UNL1        0.1966
     12 N          61.7899   85.3102   10.4702 N.ar    1  UNL1       -0.0592
     13 O          61.9074   86.6387    9.7839 O.2     1  UNL1       -0.3373
     14 C          62.5419   87.6016   10.7433 C.ar    1  UNL1        0.2364
     15 N          62.8166   86.8681   12.0225 N.ar    1  UNL1       -0.1934
     16 C          62.4345   84.3677   12.8871 C.3     1  UNL1        0.1424
     17 C          64.2789   83.0064   11.6644 C.3     1  UNL1        0.0900
     18 N          63.0642   83.0505   12.5435 N.3     1  UNL1       -0.2652
     19 C          62.4793   81.7772   13.0788 C.3     1  UNL1        0.0729
     20 C          62.8321   81.0773   11.7998 C.3     1  UNL1        0.0186
     21 C          62.1265   82.4770   14.3578 C.3     1  UNL1        0.0186
     22 C          61.8944   80.5038   13.6141 C.3     1  UNL1        0.1516
     23 O          60.5416   80.5139   14.2618 O.3     1  UNL1       -0.3806
     24 H          60.5792   81.0321   15.0809 H       1  UNL1        0.2105
     25 C          66.3791   91.9732   13.9507 C.3     1  UNL1        0.0164
     26 C          66.5733   92.2622   15.4097 C.3     1  UNL1        0.0014
     27 C          67.6996   91.6879   14.6025 C.3     1  UNL1        0.0014
     28 S          64.0277   90.1166   13.7951 S.O2    1  UNL1        0.0632
     29 O          63.4030   91.2514   14.5513 O.2     1  UNL1       -0.1528
     30 O          64.5077   88.9239   13.3832 O.2     1  UNL1       -0.1528
     31 C          63.7265   89.1905   14.9360 C.ar    1  UNL1        0.1222
     32 C          64.0924   87.7390   14.8405 C.ar    1  UNL1        0.0208
     33 C          63.7912   86.8129   15.9815 C.ar    1  UNL1        0.0128
     34 C          63.1241   87.3384   17.2179 C.ar    1  UNL1        0.0578
     35 CL         62.8229   86.4124   18.3588 Cl      1  UNL1       -0.0822
     36 C          62.7582   88.7900   17.3134 C.ar    1  UNL1        0.0128
     37 C          63.0594   89.7160   16.1725 C.ar    1  UNL1        0.0208
@<TRIPOS>BOND
     1    17    18    1
     2    18    16    1
     3    16    11    1
     4    11    12   ar
     5    12    13   ar
     6    13    14   ar
     7    14    10    1
     8    10     7    1
     9     1     7    1
    10     1     2    1
    11     2     3    1
    12     3     4    1
    13     4     5    1
    14     5    25    1
    15    25    26    1
    16    26    27    1
    17     5     6    1
    18     6    28    1
    19    28    29    2
    20    28    30    2
    21    28    31    1
    22    31    32   ar
    23    32    33   ar
    24    33    34   ar
    25    34    35    1
    26    34    36   ar
    27    36    37   ar
    28     7     8    1
    29     8     9    1
    30    14    15   ar
    31    18    19    1
    32    19    20    1
    33    19    21    1
    34    19    22    1
    35    22    23    1
    36    15    11   ar
    37     9     7    1
    38     6     1    1
    39    37    31   ar
    40    27    25    1
    41    23    24    1
@<TRIPOS>MOLECULE
*****
 37 41 0 0 0
SMALL
GASTEIGER

@<TRIPOS>ATOM
      1 C          60.4840   88.4522    9.4908 C.3     1  UNL1        0.0799
      2 C          59.7023   89.4216    8.6546 C.3     1  UNL1        0.0178
      3 C          59.3646   89.0834    7.2328 C.3     1  UNL1        0.0029
      4 C          59.8087   87.7758    6.6471 C.3     1  UNL1        0.0178
      5 C          60.5904   86.8064    7.4833 C.3     1  UNL1        0.0795
      6 N          60.9280   87.1446    8.9051 N.3     1  UNL1       -0.1583
      7 C          60.8217   88.7903   10.9127 C.3     1  UNL1        0.0240
      8 C          60.6467   89.0480   12.3799 C.3     1  UNL1        0.0019
      9 C          59.4627   88.6762   11.5374 C.3     1  UNL1        0.0019
     10 C          62.2979   89.0219   10.7817 C.3     1  UNL1        0.0894
     11 C          64.4004   90.4838   13.6984 C.ar    1  UNL1        0.1966
     12 N          64.3838   89.0269   14.0550 N.ar    1  UNL1       -0.0592
     13 O          63.5941   88.3019   13.0059 O.2     1  UNL1       -0.3373
     14 C          63.1228   89.3108   12.0008 C.ar    1  UNL1        0.2364
     15 N          63.6211   90.6592   12.4288 N.ar    1  UNL1       -0.1934
     16 C          65.0776   91.5739   14.4752 C.3     1  UNL1        0.1424
     17 C          65.8519   93.1841   12.5890 C.3     1  UNL1        0.0900
     18 N          66.1525   92.3976   13.8304 N.3     1  UNL1       -0.2652
     19 C          67.5283   92.4349   14.4270 C.3     1  UNL1        0.0729
     20 C          68.0987   91.9047   13.1450 C.3     1  UNL1        0.0186
     21 C          66.9580   92.9651   15.7090 C.3     1  UNL1        0.0186
     22 C          68.9041   92.4722   15.0235 C.3     1  UNL1        0.1516
     23 O          70.1076   92.3041   14.1443 O.3     1  UNL1       -0.3806
     24 H          70.1153   91.4073   13.7747 H       1  UNL1        0.2105
     25 C          61.0345   85.4988    6.8976 C.3     1  UNL1        0.0164
     26 C          60.7029   84.1727    6.2799 C.3     1  UNL1        0.0014
     27 C          62.1351   84.5601    6.5008 C.3     1  UNL1        0.0014
     28 S          61.7098   86.1751    9.7413 S.O2    1  UNL1        0.0632
     29 O          62.9527   86.5154    8.9736 O.2     1  UNL1       -0.1528
     30 O          60.7946   85.6670   10.5937 O.2     1  UNL1       -0.1528
     31 C          62.4915   85.2058   10.5774 C.ar    1  UNL1        0.1222
     32 C          62.3410   85.2112   12.0698 C.ar    1  UNL1        0.0208
     33 C          63.1228   84.2417   12.9060 C.ar    1  UNL1        0.0128
     34 C          64.0551   83.2670   12.2497 C.ar    1  UNL1        0.0578
     35 CL         64.8368   82.2976   13.0858 Cl      1  UNL1       -0.0822
     36 C          64.2055   83.2616   10.7573 C.ar    1  UNL1        0.0128
     37 C          63.4238   84.2309    9.9211 C.ar    1  UNL1        0.0208
@<TRIPOS>BOND
     1    17    18    1
     2    18    16    1
     3    16    11    1
     4    11    12   ar
     5    12    13   ar
     6    13    14   ar
     7    14    10    1
     8    10     7    1
     9     1     7    1
    10     1     2    1
    11     2     3    1
    12     3     4    1
    13     4     5    1
    14     5    25    1
    15    25    26    1
    16    26    27    1
    17     5     6    1
    18     6    28    1
    19    28    29    2
    20    28    30    2
    21    28    31    1
    22    31    32   ar
    23    32    33   ar
    24    33    34   ar
    25    34    35    1
    26    34    36   ar
    27    36    37   ar
    28     7     8    1
    29     8     9    1
    30    14    15   ar
    31    18    19    1
    32    19    20    1
    33    19    21    1
    34    19    22    1
    35    22    23    1
    36    15    11   ar
    37     9     7    1
    38     6     1    1
    39    37    31   ar
    40    27    25    1
    41    23    24    1
@<TRIPOS>MOLECULE
*****
 37 41 0 0 0
SMALL
GASTEIGER

@<TRIPOS>ATOM
      1 C          63.5378   84.0992   12.8434 C.3     1  UNL1        0.0799
      2 C          64.2989   82.8068   12.8588 C.3     1  UNL1        0.0178
      3 C          64.7096   82.1629   11.5678 C.3     1  UNL1        0.0029
      4 C          64.3592   82.8115   10.2614 C.3     1  UNL1        0.0178
      5 C          63.5981   84.1039   10.2461 C.3     1  UNL1        0.0795
      6 N          63.1874   84.7478   11.5371 N.3     1  UNL1       -0.1583
      7 C          63.1271   84.7431   14.1345 C.3     1  UNL1        0.0240
      8 C          62.3207   85.0546   15.3603 C.3     1  UNL1        0.0019
      9 C          61.8450   84.0094   14.3952 C.3     1  UNL1        0.0019
     10 C          64.2665   85.7005   14.3220 C.3     1  UNL1        0.0894
     11 C          63.8583   89.4890   15.0607 C.ar    1  UNL1        0.1966
     12 N          63.3709   88.8889   16.3462 N.ar    1  UNL1       -0.0592
     13 O          63.4645   87.3968   16.2259 O.2     1  UNL1       -0.3373
     14 C          64.0097   87.0746   14.8661 C.ar    1  UNL1        0.2364
     15 N          64.2531   88.3676   14.1460 N.ar    1  UNL1       -0.1934
     16 C          63.9370   90.9535   14.7453 C.3     1  UNL1        0.1424
     17 C          65.3964   92.3375   16.3898 C.3     1  UNL1        0.0900
     18 N          65.1939   91.7174   15.0390 N.3     1  UNL1       -0.2652
     19 C          66.2484   91.8614   13.9820 C.3     1  UNL1        0.0729
     20 C          67.3148   91.6752   15.0204 C.3     1  UNL1        0.0186
     21 C          65.1821   92.0475   12.9436 C.3     1  UNL1        0.0186
     22 C          67.3029   92.0054   12.9250 C.3     1  UNL1        0.1516
     23 O          68.7327   91.6822   13.2430 O.3     1  UNL1       -0.3806
     24 H          69.0698   92.3154   13.8959 H       1  UNL1        0.2105
     25 C          63.2476   84.7525    8.9397 C.3     1  UNL1        0.0164
     26 C          62.9023   84.6390    7.4844 C.3     1  UNL1        0.0014
     27 C          62.9860   85.9893    8.1324 C.3     1  UNL1        0.0014
     28 S          62.4262   86.0403   11.5218 S.O2    1  UNL1        0.0632
     29 O          61.1596   85.2908   11.2323 O.2     1  UNL1       -0.1528
     30 O          63.3667   86.9761   11.7712 O.2     1  UNL1       -0.1528
     31 C          61.6651   87.3327   11.5064 C.ar    1  UNL1        0.1222
     32 C          60.1785   87.3253   11.3060 C.ar    1  UNL1        0.0208
     33 C          59.4174   88.6178   11.2907 C.ar    1  UNL1        0.0128
     34 C          60.1427   89.9176   11.4758 C.ar    1  UNL1        0.0578
     35 CL         59.3816   91.2100   11.4605 Cl      1  UNL1       -0.0822
     36 C          61.6293   89.9250   11.6762 C.ar    1  UNL1        0.0128
     37 C          62.3904   88.6326   11.6916 C.ar    1  UNL1        0.0208
@<TRIPOS>BOND
     1    17    18    1
     2    18    16    1
     3    16    11    1
     4    11    12   ar
     5    12    13   ar
     6    13    14   ar
     7    14    10    1
     8    10     7    1
     9     1     7    1
    10     1     2    1
    11     2     3    1
    12     3     4    1
    13     4     5    1
    14     5    25    1
    15    25    26    1
    16    26    27    1
    17     5     6    1
    18     6    28    1
    19    28    29    2
    20    28    30    2
    21    28    31    1
    22    31    32   ar
    23    32    33   ar
    24    33    34   ar
    25    34    35    1
    26    34    36   ar
    27    36    37   ar
    28     7     8    1
    29     8     9    1
    30    14    15   ar
    31    18    19    1
    32    19    20    1
    33    19    21    1
    34    19    22    1
    35    22    23    1
    36    15    11   ar
    37     9     7    1
    38     6     1    1
    39    37    31   ar
    40    27    25    1
    41    23    24    1
@<TRIPOS>MOLECULE
*****
 37 41 0 0 0
SMALL
GASTEIGER

@<TRIPOS>ATOM
      1 C          60.6931   88.8383    9.4804 C.3     1  UNL1        0.0799
      2 C          59.9261   89.8162    8.6406 C.3     1  UNL1        0.0178
      3 C          59.4555   89.4221    7.2720 C.3     1  UNL1        0.0029
      4 C          59.7521   88.0501    6.7432 C.3     1  UNL1        0.0178
      5 C          60.5191   87.0722    7.5830 C.3     1  UNL1        0.0795
      6 N          60.9897   87.4663    8.9516 N.3     1  UNL1       -0.1583
      7 C          61.1637   89.2324   10.8492 C.3     1  UNL1        0.0240
      8 C          61.1293   89.5446   12.3159 C.3     1  UNL1        0.0019
      9 C          59.8729   89.1335   11.6069 C.3     1  UNL1        0.0019
     10 C          62.6179   89.4681   10.5667 C.3     1  UNL1        0.0894
     11 C          64.8438   92.2818   12.0479 C.ar    1  UNL1        0.1966
     12 N          64.3318   91.6292   13.2977 N.ar    1  UNL1       -0.0592
     13 O          63.4356   90.4958   12.8949 O.2     1  UNL1       -0.3373
     14 C          63.3938   90.4479   11.3962 C.ar    1  UNL1        0.2364
     15 N          64.2641   91.5517   10.8727 N.ar    1  UNL1       -0.1934
     16 C          65.7726   93.4581   11.9845 C.3     1  UNL1        0.1424
     17 C          67.5479   92.4056   10.4063 C.3     1  UNL1        0.0900
     18 N          66.7388   93.5902   10.8449 N.3     1  UNL1       -0.2652
     19 C          66.8960   94.9069   10.1437 C.3     1  UNL1        0.0729
     20 C          66.2004   95.5954   11.2805 C.3     1  UNL1        0.0186
     21 C          67.5915   94.2184    9.0070 C.3     1  UNL1        0.0186
     22 C          67.0532   96.2236    9.4426 C.3     1  UNL1        0.1516
     23 O          67.9868   96.3449    8.2750 O.3     1  UNL1       -0.3806
     24 H          68.8994   96.2111    8.5754 H       1  UNL1        0.2105
     25 C          60.8157   85.7002    7.0541 C.3     1  UNL1        0.0164
     26 C          60.3400   84.3507    6.6041 C.3     1  UNL1        0.0014
     27 C          61.8048   84.6734    6.5882 C.3     1  UNL1        0.0014
     28 S          61.7568   86.4884    9.7915 S.O2    1  UNL1        0.0632
     29 O          62.9849   86.7462    8.9698 O.2     1  UNL1       -0.1528
     30 O          60.8513   86.0503   10.6919 O.2     1  UNL1       -0.1528
     31 C          62.5239   85.5106   10.6313 C.ar    1  UNL1        0.1222
     32 C          63.2867   84.3968    9.9773 C.ar    1  UNL1        0.0208
     33 C          64.0538   83.4189   10.8172 C.ar    1  UNL1        0.0128
     34 C          64.0581   83.5548   12.3110 C.ar    1  UNL1        0.0578
     35 CL         64.8252   82.5770   13.1508 Cl      1  UNL1       -0.0822
     36 C          63.2953   84.6686   12.9650 C.ar    1  UNL1        0.0128
     37 C          62.5282   85.6464   12.1252 C.ar    1  UNL1        0.0208
@<TRIPOS>BOND
     1    17    18    1
     2    18    16    1
     3    16    11    1
     4    11    12   ar
     5    12    13   ar
     6    13    14   ar
     7    14    10    1
     8    10     7    1
     9     1     7    1
    10     1     2    1
    11     2     3    1
    12     3     4    1
    13     4     5    1
    14     5    25    1
    15    25    26    1
    16    26    27    1
    17     5     6    1
    18     6    28    1
    19    28    29    2
    20    28    30    2
    21    28    31    1
    22    31    32   ar
    23    32    33   ar
    24    33    34   ar
    25    34    35    1
    26    34    36   ar
    27    36    37   ar
    28     7     8    1
    29     8     9    1
    30    14    15   ar
    31    18    19    1
    32    19    20    1
    33    19    21    1
    34    19    22    1
    35    22    23    1
    36    15    11   ar
    37     9     7    1
    38     6     1    1
    39    37    31   ar
    40    27    25    1
    41    23    24    1
@<TRIPOS>MOLECULE
*****
 37 41 0 0 0
SMALL
GASTEIGER

@<TRIPOS>ATOM
      1 C          62.8024   89.1446   12.5796 C.3     1  UNL1        0.0799
      2 C          63.2847   89.7510   13.8640 C.3     1  UNL1        0.0178
      3 C          63.8855   88.8788   14.9261 C.3     1  UNL1        0.0029
      4 C          64.0041   87.4001   14.7038 C.3     1  UNL1        0.0178
      5 C          63.5218   86.7936   13.4194 C.3     1  UNL1        0.0795
      6 N          62.9210   87.6659   12.3574 N.3     1  UNL1       -0.1583
      7 C          62.2015   90.0169   11.5174 C.3     1  UNL1        0.0240
      8 C          61.1680   90.7331   10.6997 C.3     1  UNL1        0.0019
      9 C          60.7467   89.8706   11.8524 C.3     1  UNL1        0.0019
     10 C          63.4477   90.4661   10.8137 C.3     1  UNL1        0.0894
     11 C          65.7271   93.5099   11.5914 C.ar    1  UNL1        0.1966
     12 N          65.3861   93.0421   12.9752 N.ar    1  UNL1       -0.0592
     13 O          64.4908   91.8450   12.8523 O.2     1  UNL1       -0.3373
     14 C          64.2784   91.5729   11.3925 C.ar    1  UNL1        0.2364
     15 N          65.0425   92.6018   10.6132 N.ar    1  UNL1       -0.1934
     16 C          66.5996   94.6803   11.2464 C.3     1  UNL1        0.1424
     17 C          68.3579   93.7008    9.6036 C.3     1  UNL1        0.0900
     18 N          67.3088   94.7235    9.9254 N.3     1  UNL1       -0.2652
     19 C          66.9689   95.7894    8.9262 C.3     1  UNL1        0.0729
     20 C          67.2180   94.8207    7.8082 C.3     1  UNL1        0.0186
     21 C          66.7199   96.7579   10.0441 C.3     1  UNL1        0.0186
     22 C          66.6291   96.8551    7.9269 C.3     1  UNL1        0.1516
     23 O          65.5012   96.6452    6.9607 O.3     1  UNL1       -0.3806
     24 H          65.7244   95.9207    6.3556 H       1  UNL1        0.2105
     25 C          63.6404   85.3149   13.1972 C.3     1  UNL1        0.0164
     26 C          63.1416   83.9210   13.4382 C.3     1  UNL1        0.0014
     27 C          64.3445   84.1478   12.5713 C.3     1  UNL1        0.0014
     28 S          62.4387   87.0595   11.0729 S.O2    1  UNL1        0.0632
     29 O          61.3094   86.4006   11.8081 O.2     1  UNL1       -0.1528
     30 O          63.3198   87.5029   10.1512 O.2     1  UNL1       -0.1528
     31 C          61.9563   86.4531    9.7886 C.ar    1  UNL1        0.1222
     32 C          62.8663   85.5689    8.9884 C.ar    1  UNL1        0.0208
     33 C          62.3839   84.9624    7.7040 C.ar    1  UNL1        0.0128
     34 C          60.9916   85.2402    7.2198 C.ar    1  UNL1        0.0578
     35 CL         60.5093   84.6338    5.9355 Cl      1  UNL1       -0.0822
     36 C          60.0817   86.1244    8.0200 C.ar    1  UNL1        0.0128
     37 C          60.5641   86.7309    9.3043 C.ar    1  UNL1        0.0208
@<TRIPOS>BOND
     1    17    18    1
     2    18    16    1
     3    16    11    1
     4    11    12   ar
     5    12    13   ar
     6    13    14   ar
     7    14    10    1
     8    10     7    1
     9     1     7    1
    10     1     2    1
    11     2     3    1
    12     3     4    1
    13     4     5    1
    14     5    25    1
    15    25    26    1
    16    26    27    1
    17     5     6    1
    18     6    28    1
    19    28    29    2
    20    28    30    2
    21    28    31    1
    22    31    32   ar
    23    32    33   ar
    24    33    34   ar
    25    34    35    1
    26    34    36   ar
    27    36    37   ar
    28     7     8    1
    29     8     9    1
    30    14    15   ar
    31    18    19    1
    32    19    20    1
    33    19    21    1
    34    19    22    1
    35    22    23    1
    36    15    11   ar
    37     9     7    1
    38     6     1    1
    39    37    31   ar
    40    27    25    1
    41    23    24    1
@<TRIPOS>MOLECULE
*****
 37 41 0 0 0
SMALL
GASTEIGER

@<TRIPOS>ATOM
      1 C          64.9511   91.2450   15.0611 C.3     1  UNL1        0.0799
      2 C          65.8911   91.9577   15.9876 C.3     1  UNL1        0.0178
      3 C          66.7971   93.0294   15.4581 C.3     1  UNL1        0.0029
      4 C          66.7631   93.3885   14.0021 C.3     1  UNL1        0.0178
      5 C          65.8231   92.6758   13.0756 C.3     1  UNL1        0.0795
      6 N          64.9171   91.6040   13.6051 N.3     1  UNL1       -0.1583
      7 C          64.0450   90.1732   15.5907 C.3     1  UNL1        0.0240
      8 C          62.9316   89.5185   16.3533 C.3     1  UNL1        0.0019
      9 C          63.1331   91.0020   16.4460 C.3     1  UNL1        0.0019
     10 C          64.6422   88.9722   14.9191 C.3     1  UNL1        0.0894
     11 C          63.6418   85.2263   15.1008 C.ar    1  UNL1        0.1966
     12 N          63.0263   85.7522   16.3636 N.ar    1  UNL1       -0.0592
     13 O          63.3261   87.2194   16.4492 O.2     1  UNL1       -0.3373
     14 C          64.1269   87.6003   15.2394 C.ar    1  UNL1        0.2364
     15 N          64.3220   86.3685   14.4060 N.ar    1  UNL1       -0.1934
     16 C          63.5867   83.8072   14.6176 C.3     1  UNL1        0.1424
     17 C          62.5892   84.6109   12.3573 C.3     1  UNL1        0.0900
     18 N          63.0083   83.4960   13.2692 N.3     1  UNL1       -0.2652
     19 C          62.8491   82.0698   12.8324 C.3     1  UNL1        0.0729
     20 C          63.6479   82.3592   11.5961 C.3     1  UNL1        0.0186
     21 C          62.0504   81.7805   14.0686 C.3     1  UNL1        0.0186
     22 C          62.6899   80.6437   12.3955 C.3     1  UNL1        0.1516
     23 O          62.1678   79.6184   13.3577 O.3     1  UNL1       -0.3806
     24 H          62.8055   79.4970   14.0784 H       1  UNL1        0.2105
     25 C          65.7891   93.0348   11.6196 C.3     1  UNL1        0.0164
     26 C          65.5112   94.0314   10.5336 C.3     1  UNL1        0.0014
     27 C          66.0082   92.6601   10.1838 C.3     1  UNL1        0.0014
     28 S          63.9770   90.8913   12.6787 S.O2    1  UNL1        0.0632
     29 O          62.9987   92.0217   12.8017 O.2     1  UNL1       -0.1528
     30 O          64.6266   89.7490   12.3695 O.2     1  UNL1       -0.1528
     31 C          63.0369   90.1786   11.7522 C.ar    1  UNL1        0.1222
     32 C          62.2687   90.9524   10.7221 C.ar    1  UNL1        0.0208
     33 C          61.3286   90.2396    9.7957 C.ar    1  UNL1        0.0128
     34 C          61.1568   88.7531    9.8993 C.ar    1  UNL1        0.0578
     35 CL         60.2167   88.0405    8.9729 Cl      1  UNL1       -0.0822
     36 C          61.9250   87.9793   10.9294 C.ar    1  UNL1        0.0128
     37 C          62.8650   88.6920   11.8559 C.ar    1  UNL1        0.0208
@<TRIPOS>BOND
     1    17    18    1
     2    18    16    1
     3    16    11    1
     4    11    12   ar
     5    12    13   ar
     6    13    14   ar
     7    14    10    1
     8    10     7    1
     9     1     7    1
    10     1     2    1
    11     2     3    1
    12     3     4    1
    13     4     5    1
    14     5    25    1
    15    25    26    1
    16    26    27    1
    17     5     6    1
    18     6    28    1
    19    28    29    2
    20    28    30    2
    21    28    31    1
    22    31    32   ar
    23    32    33   ar
    24    33    34   ar
    25    34    35    1
    26    34    36   ar
    27    36    37   ar
    28     7     8    1
    29     8     9    1
    30    14    15   ar
    31    18    19    1
    32    19    20    1
    33    19    21    1
    34    19    22    1
    35    22    23    1
    36    15    11   ar
    37     9     7    1
    38     6     1    1
    39    37    31   ar
    40    27    25    1
    41    23    24    1
@<TRIPOS>MOLECULE
*****
 37 41 0 0 0
SMALL
GASTEIGER

@<TRIPOS>ATOM
      1 C          60.3068   88.6084    9.1574 C.3     1  UNL1        0.0799
      2 C          59.5307   89.5133    8.2471 C.3     1  UNL1        0.0178
      3 C          59.2300   89.0845    6.8415 C.3     1  UNL1        0.0029
      4 C          59.7055   87.7509    6.3462 C.3     1  UNL1        0.0178
      5 C          60.4817   86.8460    7.2565 C.3     1  UNL1        0.0795
      6 N          60.7823   87.2748    8.6621 N.3     1  UNL1       -0.1583
      7 C          60.6075   89.0371   10.5631 C.3     1  UNL1        0.0240
      8 C          60.4373   89.2541   12.0375 C.3     1  UNL1        0.0019
      9 C          59.3559   88.5762   11.2494 C.3     1  UNL1        0.0019
     10 C          61.9635   89.6470   10.3649 C.3     1  UNL1        0.0894
     11 C          64.0863   89.6535   13.6144 C.ar    1  UNL1        0.1966
     12 N          64.2951   91.0574   13.1290 N.ar    1  UNL1       -0.0592
     13 O          63.5253   91.2258   11.8527 O.2     1  UNL1       -0.3373
     14 C          62.8408   89.9260   11.5492 C.ar    1  UNL1        0.2364
     15 N          63.1875   88.9543   12.6380 N.ar    1  UNL1       -0.1934
     16 C          64.6733   89.0542   14.8579 C.3     1  UNL1        0.1424
     17 C          63.0053   89.4903   16.8014 C.3     1  UNL1        0.0900
     18 N          63.7715   88.5331   15.9372 N.3     1  UNL1       -0.2652
     19 C          63.6357   87.0548   16.1524 C.3     1  UNL1        0.0729
     20 C          64.5252   86.8012   14.9714 C.3     1  UNL1        0.0186
     21 C          62.7464   87.3085   17.3333 C.3     1  UNL1        0.0186
     22 C          63.5000   85.5765   16.3675 C.3     1  UNL1        0.1516
     23 O          64.5962   84.6511   15.9298 O.3     1  UNL1       -0.3806
     24 H          64.6670   84.6685   14.9625 H       1  UNL1        0.2105
     25 C          60.9572   85.5124    6.7612 C.3     1  UNL1        0.0164
     26 C          62.0794   84.5935    6.3788 C.3     1  UNL1        0.0014
     27 C          60.6586   84.1214    6.2859 C.3     1  UNL1        0.0014
     28 S          61.5586   86.3699    9.5725 S.O2    1  UNL1        0.0632
     29 O          62.8407   86.8674    8.9737 O.2     1  UNL1       -0.1528
     30 O          60.6079   85.7384   10.2936 O.2     1  UNL1       -0.1528
     31 C          62.3348   85.4650   10.4828 C.ar    1  UNL1        0.1222
     32 C          62.1403   85.5488   11.9678 C.ar    1  UNL1        0.0208
     33 C          62.9165   84.6439   12.8781 C.ar    1  UNL1        0.0128
     34 C          63.8873   83.6553   12.3035 C.ar    1  UNL1        0.0578
     35 CL         64.6635   82.7505   13.2138 Cl      1  UNL1       -0.0822
     36 C          64.0818   83.5715   10.8185 C.ar    1  UNL1        0.0128
     37 C          63.3056   84.4764    9.9082 C.ar    1  UNL1        0.0208
@<TRIPOS>BOND
     1    17    18    1
     2    18    16    1
     3    16    11    1
     4    11    12   ar
     5    12    13   ar
     6    13    14   ar
     7    14    10    1
     8    10     7    1
     9     1     7    1
    10     1     2    1
    11     2     3    1
    12     3     4    1
    13     4     5    1
    14     5    25    1
    15    25    26    1
    16    26    27    1
    17     5     6    1
    18     6    28    1
    19    28    29    2
    20    28    30    2
    21    28    31    1
    22    31    32   ar
    23    32    33   ar
    24    33    34   ar
    25    34    35    1
    26    34    36   ar
    27    36    37   ar
    28     7     8    1
    29     8     9    1
    30    14    15   ar
    31    18    19    1
    32    19    20    1
    33    19    21    1
    34    19    22    1
    35    22    23    1
    36    15    11   ar
    37     9     7    1
    38     6     1    1
    39    37    31   ar
    40    27    25    1
    41    23    24    1
@<TRIPOS>MOLECULE
*****
 37 41 0 0 0
SMALL
GASTEIGER

@<TRIPOS>ATOM
      1 C          60.2842   88.9726    9.6344 C.3     1  UNL1        0.0799
      2 C          59.5343   89.7327    8.5808 C.3     1  UNL1        0.0178
      3 C          59.4362   89.1850    7.1878 C.3     1  UNL1        0.0029
      4 C          60.0880   87.8773    6.8485 C.3     1  UNL1        0.0178
      5 C          60.8378   87.1173    7.9020 C.3     1  UNL1        0.0795
      6 N          60.9359   87.6649    9.2950 N.3     1  UNL1       -0.1583
      7 C          60.3823   89.5203   11.0274 C.3     1  UNL1        0.0240
      8 C          60.0559   89.7702   12.4700 C.3     1  UNL1        0.0019
      9 C          59.1938   88.8531   11.6540 C.3     1  UNL1        0.0019
     10 C          61.6048   90.3776   10.8846 C.3     1  UNL1        0.0894
     11 C          64.5833   90.9762   13.3004 C.ar    1  UNL1        0.1966
     12 N          63.5996   90.3065   14.2135 N.ar    1  UNL1       -0.0592
     13 O          62.3642   90.0008   13.4198 O.2     1  UNL1       -0.3373
     14 C          62.5843   90.4815   12.0160 C.ar    1  UNL1        0.2364
     15 N          63.9558   91.0843   11.9422 N.ar    1  UNL1       -0.1934
     16 C          65.9540   91.4538   13.6790 C.3     1  UNL1        0.1424
     17 C          66.5092   93.9878   13.8227 C.3     1  UNL1        0.0900
     18 N          66.5131   92.6984   13.0561 N.3     1  UNL1       -0.2652
     19 C          67.0762   92.6539   11.6664 C.3     1  UNL1        0.0729
     20 C          68.1040   91.6576   12.1148 C.3     1  UNL1        0.0186
     21 C          66.0484   93.6501   11.2181 C.3     1  UNL1        0.0186
     22 C          67.6393   92.6093   10.2769 C.3     1  UNL1        0.1516
     23 O          69.1075   92.8216   10.0554 O.3     1  UNL1       -0.3806
     24 H          69.3427   93.7312   10.2966 H       1  UNL1        0.2105
     25 C          61.4895   85.8096    7.5626 C.3     1  UNL1        0.0164
     26 C          62.6604   84.8773    7.6619 C.3     1  UNL1        0.0014
     27 C          61.4474   84.4769    6.8755 C.3     1  UNL1        0.0014
     28 S          61.6857   86.9049   10.3487 S.O2    1  UNL1        0.0632
     29 O          60.5306   85.9582   10.4878 O.2     1  UNL1       -0.1528
     30 O          62.8578   87.5661   10.4565 O.2     1  UNL1       -0.1528
     31 C          62.4355   86.1448   11.4023 C.ar    1  UNL1        0.1222
     32 C          62.5476   84.6517   11.3132 C.ar    1  UNL1        0.0208
     33 C          63.2974   83.8917   12.3669 C.ar    1  UNL1        0.0128
     34 C          63.9351   84.6248   13.5096 C.ar    1  UNL1        0.0578
     35 CL         64.6848   83.8647   14.5632 Cl      1  UNL1       -0.0822
     36 C          63.8230   86.1179   13.5987 C.ar    1  UNL1        0.0128
     37 C          63.0732   86.8780   12.5451 C.ar    1  UNL1        0.0208
@<TRIPOS>BOND
     1    17    18    1
     2    18    16    1
     3    16    11    1
     4    11    12   ar
     5    12    13   ar
     6    13    14   ar
     7    14    10    1
     8    10     7    1
     9     1     7    1
    10     1     2    1
    11     2     3    1
    12     3     4    1
    13     4     5    1
    14     5    25    1
    15    25    26    1
    16    26    27    1
    17     5     6    1
    18     6    28    1
    19    28    29    2
    20    28    30    2
    21    28    31    1
    22    31    32   ar
    23    32    33   ar
    24    33    34   ar
    25    34    35    1
    26    34    36   ar
    27    36    37   ar
    28     7     8    1
    29     8     9    1
    30    14    15   ar
    31    18    19    1
    32    19    20    1
    33    19    21    1
    34    19    22    1
    35    22    23    1
    36    15    11   ar
    37     9     7    1
    38     6     1    1
    39    37    31   ar
    40    27    25    1
    41    23    24    1
@<TRIPOS>MOLECULE
*****
 37 41 0 0 0
SMALL
GASTEIGER

@<TRIPOS>ATOM
      1 C          63.5324   87.7351   13.2409 C.3     1  UNL1        0.0799
      2 C          63.6502   89.2125   13.0102 C.3     1  UNL1        0.0178
      3 C          63.1728   89.8105   11.7200 C.3     1  UNL1        0.0029
      4 C          62.5777   88.9310   10.6606 C.3     1  UNL1        0.0178
      5 C          62.4599   87.4536   10.8914 C.3     1  UNL1        0.0795
      6 N          62.9373   86.8556   12.1815 N.3     1  UNL1       -0.1583
      7 C          64.0098   87.1370   14.5311 C.3     1  UNL1        0.0240
      8 C          64.7851   86.2764   15.4841 C.3     1  UNL1        0.0019
      9 C          65.0334   86.1731   14.0084 C.3     1  UNL1        0.0019
     10 C          63.1520   87.8933   15.5018 C.3     1  UNL1        0.0894
     11 C          64.5826   91.4779   15.9133 C.ar    1  UNL1        0.1966
     12 N          63.3591   91.5531   16.7779 N.ar    1  UNL1       -0.0592
     13 O          62.6743   90.2195   16.7289 O.2     1  UNL1       -0.3373
     14 C          63.4746   89.3200   15.8341 C.ar    1  UNL1        0.2364
     15 N          64.6540   90.0977   15.3301 N.ar    1  UNL1       -0.1934
     16 C          65.5627   92.5880   15.6741 C.3     1  UNL1        0.1424
     17 C          65.6864   92.6406   13.0795 C.3     1  UNL1        0.0900
     18 N          66.3737   92.6136   14.4126 N.3     1  UNL1       -0.2652
     19 C          67.8720   92.6123   14.4840 C.3     1  UNL1        0.0729
     20 C          67.8061   93.1642   15.8773 C.3     1  UNL1        0.0186
     21 C          67.9379   92.0604   13.0908 C.3     1  UNL1        0.0186
     22 C          69.3703   92.6110   14.5555 C.3     1  UNL1        0.1516
     23 O          70.1721   91.9453   13.4768 O.3     1  UNL1       -0.3806
     24 H          70.0079   90.9894   13.4951 H       1  UNL1        0.2105
     25 C          61.8648   86.5741    9.8319 C.3     1  UNL1        0.0164
     26 C          60.6653   86.0666    9.0878 C.3     1  UNL1        0.0014
     27 C          62.0334   85.5584    8.7412 C.3     1  UNL1        0.0014
     28 S          62.8195   85.3781   12.4123 S.O2    1  UNL1        0.0632
     29 O          61.6248   85.6103   13.2890 O.2     1  UNL1       -0.1528
     30 O          63.8372   84.8536   11.6970 O.2     1  UNL1       -0.1528
     31 C          62.7017   83.9007   12.6431 C.ar    1  UNL1        0.1222
     32 C          62.8578   82.9475   11.4955 C.ar    1  UNL1        0.0208
     33 C          62.7400   81.4700   11.7263 C.ar    1  UNL1        0.0128
     34 C          62.4661   80.9458   13.1048 C.ar    1  UNL1        0.0578
     35 CL         62.3483   79.4684   13.3356 Cl      1  UNL1       -0.0822
     36 C          62.3100   81.8990   14.2524 C.ar    1  UNL1        0.0128
     37 C          62.4278   83.3764   14.0216 C.ar    1  UNL1        0.0208
@<TRIPOS>BOND
     1    17    18    1
     2    18    16    1
     3    16    11    1
     4    11    12   ar
     5    12    13   ar
     6    13    14   ar
     7    14    10    1
     8    10     7    1
     9     1     7    1
    10     1     2    1
    11     2     3    1
    12     3     4    1
    13     4     5    1
    14     5    25    1
    15    25    26    1
    16    26    27    1
    17     5     6    1
    18     6    28    1
    19    28    29    2
    20    28    30    2
    21    28    31    1
    22    31    32   ar
    23    32    33   ar
    24    33    34   ar
    25    34    35    1
    26    34    36   ar
    27    36    37   ar
    28     7     8    1
    29     8     9    1
    30    14    15   ar
    31    18    19    1
    32    19    20    1
    33    19    21    1
    34    19    22    1
    35    22    23    1
    36    15    11   ar
    37     9     7    1
    38     6     1    1
    39    37    31   ar
    40    27    25    1
    41    23    24    1
