@<TRIPOS>MOLECULE
*****
 29 32 0 0 0
SMALL
GASTEIGER

@<TRIPOS>ATOM
      1 C          64.0649   90.4273   15.7326 C.2     1  UNL1        0.2525
      2 O          63.4124   91.0800   16.9151 O.2     1  UNL1       -0.2698
      3 N          63.8520   88.9658   15.4705 N.am    1  UNL1       -0.2660
      4 C          64.4358   88.1796   14.3342 C.3     1  UNL1        0.1236
      5 C          63.9625   86.7619   14.4601 C.ar    1  UNL1        0.0338
      6 C          64.0308   85.3997   13.8356 C.ar    1  UNL1        0.0991
      7 N          63.1966   84.4678   14.6637 N.ar    1  UNL1       -0.2271
      8 N          62.6128   85.2540   15.8000 N.ar    1  UNL1       -0.1680
      9 C          63.0861   86.6718   15.6741 C.ar    1  UNL1        0.0981
     10 C          63.0178   88.0339   16.2986 C.3     1  UNL1        0.1414
     11 C          62.9837   83.0064   14.4016 C.ar    1  UNL1        0.1042
     12 C          64.1548   82.1212   14.0936 C.ar    1  UNL1        0.1181
     13 N          63.9420   80.6597   13.8314 N.ar    1  UNL1       -0.2384
     14 C          62.5579   80.0833   13.8773 C.ar    1  UNL1        0.1285
     15 C          61.3866   80.9686   14.1853 C.ar    1  UNL1        0.1607
     16 F          60.0025   80.3922   14.2312 F       1  UNL1       -0.2025
     17 C          61.5996   82.4300   14.4475 C.ar    1  UNL1        0.0520
     18 C          64.4604   91.5487   13.4225 C.ar    1  UNL1        0.1427
     19 C          65.3259   92.3574   12.5023 C.ar    1  UNL1        0.0377
     20 C          66.6613   92.8536   12.9718 C.ar    1  UNL1        0.0134
     21 C          67.1313   92.5411   14.3616 C.ar    1  UNL1        0.0688
     22 C          66.2657   91.7322   15.2818 C.ar    1  UNL1        0.0178
     23 C          64.9303   91.2360   14.8123 C.ar    1  UNL1        0.0881
     24 C          68.4667   93.0373   14.8310 C.1     1  UNL1        0.1004
     25 N          69.8021   93.5335   15.3005 N.1     1  UNL1       -0.1908
     26 O          63.1250   91.0524   12.9531 O.3     1  UNL1       -0.4790
     27 C          62.7384   88.9183   11.5226 C.3     1  UNL1        0.0472
     28 C          62.9992   90.3928   11.6118 C.3     1  UNL1        0.1661
     29 C          63.1341   91.2077   10.3597 C.3     1  UNL1        0.0472
@<TRIPOS>BOND
     1    27    28    1
     2    28    29    1
     3    28    26    1
     4    26    18    1
     5    18    19   ar
     6    19    20   ar
     7    20    21   ar
     8    21    24    1
     9    24    25    3
    10    21    22   ar
    11    22    23   ar
    12    23     1    1
    13     1     2    2
    14     1     3   am
    15     3     4    1
    16     4     5    1
    17     5     6   ar
    18     6     7   ar
    19     7    11    1
    20    11    12   ar
    21    12    13   ar
    22    13    14   ar
    23    14    15   ar
    24    15    16    1
    25    15    17   ar
    26     7     8   ar
    27     8     9   ar
    28     9    10    1
    29    23    18   ar
    30    10     3    1
    31     9     5   ar
    32    17    11   ar
@<TRIPOS>MOLECULE
*****
 29 32 0 0 0
SMALL
GASTEIGER

@<TRIPOS>ATOM
      1 C          63.8561   88.9813   15.5404 C.2     1  UNL1        0.2525
      2 O          63.5011   89.3218   16.9574 O.2     1  UNL1       -0.2698
      3 N          63.6719   87.5804   15.0369 N.am    1  UNL1       -0.2660
      4 C          63.9813   87.0932   13.6524 C.3     1  UNL1        0.1236
      5 C          63.6466   85.6324   13.5895 C.ar    1  UNL1        0.0338
      6 C          63.6310   84.4285   12.6949 C.ar    1  UNL1        0.0991
      7 N          63.1050   83.2687   13.4876 N.ar    1  UNL1       -0.2271
      8 N          62.7956   83.7559   14.8721 N.ar    1  UNL1       -0.1680
      9 C          63.1303   85.2167   14.9351 C.ar    1  UNL1        0.0981
     10 C          63.1460   86.4206   15.8297 C.3     1  UNL1        0.1414
     11 C          62.9208   81.8678   12.9842 C.ar    1  UNL1        0.1042
     12 C          62.5853   80.7643   13.9431 C.ar    1  UNL1        0.1181
     13 N          62.4011   79.3633   13.4397 N.ar    1  UNL1       -0.2384
     14 C          62.5524   79.0659   11.9773 C.ar    1  UNL1        0.1285
     15 C          62.8880   80.1695   11.0183 C.ar    1  UNL1        0.1607
     16 F          63.0393   79.8720    9.5558 F       1  UNL1       -0.2025
     17 C          63.0721   81.5703   11.5217 C.ar    1  UNL1        0.0520
     18 C          63.5671   90.5330   13.4767 C.ar    1  UNL1        0.1427
     19 C          64.1064   91.5935   12.5631 C.ar    1  UNL1        0.0377
     20 C          65.4739   92.1627   12.7996 C.ar    1  UNL1        0.0134
     21 C          66.3022   91.6715   13.9497 C.ar    1  UNL1        0.0688
     22 C          65.7628   90.6110   14.8633 C.ar    1  UNL1        0.0178
     23 C          64.3953   90.0417   14.6268 C.ar    1  UNL1        0.0881
     24 C          67.6696   92.2407   14.1862 C.1     1  UNL1        0.1004
     25 N          69.0371   92.8100   14.4227 N.1     1  UNL1       -0.1908
     26 O          62.1996   89.9638   13.2402 O.3     1  UNL1       -0.4790
     27 C          60.4362   90.3875   11.3799 C.3     1  UNL1        0.0472
     28 C          61.7108   89.7438   11.8392 C.3     1  UNL1        0.1661
     29 C          62.4967   88.8802   10.8977 C.3     1  UNL1        0.0472
@<TRIPOS>BOND
     1    27    28    1
     2    28    29    1
     3    28    26    1
     4    26    18    1
     5    18    19   ar
     6    19    20   ar
     7    20    21   ar
     8    21    24    1
     9    24    25    3
    10    21    22   ar
    11    22    23   ar
    12    23     1    1
    13     1     2    2
    14     1     3   am
    15     3     4    1
    16     4     5    1
    17     5     6   ar
    18     6     7   ar
    19     7    11    1
    20    11    12   ar
    21    12    13   ar
    22    13    14   ar
    23    14    15   ar
    24    15    16    1
    25    15    17   ar
    26     7     8   ar
    27     8     9   ar
    28     9    10    1
    29    23    18   ar
    30    10     3    1
    31     9     5   ar
    32    17    11   ar
@<TRIPOS>MOLECULE
*****
 29 32 0 0 0
SMALL
GASTEIGER

@<TRIPOS>ATOM
      1 C          60.1454   88.6786   11.5262 C.2     1  UNL1        0.2525
      2 O          58.9275   88.4650   12.3753 O.2     1  UNL1       -0.2698
      3 N          61.3648   89.3257   12.1131 N.am    1  UNL1       -0.2660
      4 C          62.6497   89.6034   11.3908 C.3     1  UNL1        0.1236
      5 C          63.5923   90.2580   12.3567 C.ar    1  UNL1        0.0338
      6 C          64.9690   90.8342   12.5073 C.ar    1  UNL1        0.0991
      7 N          65.1175   91.3172   13.9196 N.ar    1  UNL1       -0.2271
      8 N          63.8325   91.0395   14.6420 N.ar    1  UNL1       -0.1680
      9 C          62.8899   90.3849   13.6760 C.ar    1  UNL1        0.0981
     10 C          61.5132   89.8087   13.5255 C.3     1  UNL1        0.1414
     11 C          66.3368   91.9642   14.5065 C.ar    1  UNL1        0.1042
     12 C          66.2220   92.7853   15.7566 C.ar    1  UNL1        0.1181
     13 N          67.4413   93.4324   16.3436 N.ar    1  UNL1       -0.2384
     14 C          68.7755   93.2584   15.6805 C.ar    1  UNL1        0.1285
     15 C          68.8903   92.4373   14.4304 C.ar    1  UNL1        0.1607
     16 F          70.2246   92.2634   13.7673 F       1  UNL1       -0.2025
     17 C          67.6711   91.7903   13.8434 C.ar    1  UNL1        0.0520
     18 C          60.5314   86.8416    9.7299 C.ar    1  UNL1        0.1427
     19 C          60.5299   86.4083    8.2939 C.ar    1  UNL1        0.0377
     20 C          60.1412   87.3785    7.2181 C.ar    1  UNL1        0.0134
     21 C          59.7538   88.7822    7.5782 C.ar    1  UNL1        0.0688
     22 C          59.7553   89.2155    9.0144 C.ar    1  UNL1        0.0178
     23 C          60.1440   88.2452   10.0902 C.ar    1  UNL1        0.0881
     24 C          59.3650   89.7525    6.5024 C.1     1  UNL1        0.1004
     25 N          58.9763   90.7227    5.4266 N.1     1  UNL1       -0.1908
     26 O          60.9202   85.8713   10.8058 O.3     1  UNL1       -0.4790
     27 C          63.0889   84.6953    9.9913 C.3     1  UNL1        0.0472
     28 C          62.3636   85.5200   11.0130 C.3     1  UNL1        0.1661
     29 C          63.0817   85.9933   12.2419 C.3     1  UNL1        0.0472
@<TRIPOS>BOND
     1    27    28    1
     2    28    29    1
     3    28    26    1
     4    26    18    1
     5    18    19   ar
     6    19    20   ar
     7    20    21   ar
     8    21    24    1
     9    24    25    3
    10    21    22   ar
    11    22    23   ar
    12    23     1    1
    13     1     2    2
    14     1     3   am
    15     3     4    1
    16     4     5    1
    17     5     6   ar
    18     6     7   ar
    19     7    11    1
    20    11    12   ar
    21    12    13   ar
    22    13    14   ar
    23    14    15   ar
    24    15    16    1
    25    15    17   ar
    26     7     8   ar
    27     8     9   ar
    28     9    10    1
    29    23    18   ar
    30    10     3    1
    31     9     5   ar
    32    17    11   ar
@<TRIPOS>MOLECULE
*****
 29 32 0 0 0
SMALL
GASTEIGER

@<TRIPOS>ATOM
      1 C          64.2846   90.0052   14.0596 C.2     1  UNL1        0.2525
      2 O          64.6113   90.7044   15.3458 O.2     1  UNL1       -0.2698
      3 N          64.0050   88.5315   14.0571 N.am    1  UNL1       -0.2660
      4 C          63.6661   87.7004   12.8553 C.3     1  UNL1        0.1236
      5 C          63.4669   86.2854   13.3115 C.ar    1  UNL1        0.0338
      6 C          63.1343   84.8972   12.8507 C.ar    1  UNL1        0.0991
      7 N          63.1447   83.9958   14.0496 N.ar    1  UNL1       -0.2271
      8 N          63.4836   84.8270   15.2515 N.ar    1  UNL1       -0.1680
      9 C          63.6828   86.2419   14.7952 C.ar    1  UNL1        0.0981
     10 C          64.0154   87.6301   15.2561 C.3     1  UNL1        0.1414
     11 C          62.8651   82.5222   14.0472 C.ar    1  UNL1        0.1042
     12 C          63.9961   81.5444   13.9253 C.ar    1  UNL1        0.1181
     13 N          63.7166   80.0707   13.9228 N.ar    1  UNL1       -0.2384
     14 C          62.3061   79.5747   14.0423 C.ar    1  UNL1        0.1285
     15 C          61.1750   80.5524   14.1642 C.ar    1  UNL1        0.1607
     16 F          59.7644   80.0564   14.2837 F       1  UNL1       -0.2025
     17 C          61.4545   82.0261   14.1666 C.ar    1  UNL1        0.0520
     18 C          63.0269   90.6967   11.8938 C.ar    1  UNL1        0.1427
     19 C          62.9799   91.4712   10.6101 C.ar    1  UNL1        0.0377
     20 C          64.1432   92.3287   10.2084 C.ar    1  UNL1        0.0134
     21 C          65.3536   92.4117   11.0904 C.ar    1  UNL1        0.0688
     22 C          65.4007   91.6372   12.3741 C.ar    1  UNL1        0.0178
     23 C          64.2374   90.7796   12.7759 C.ar    1  UNL1        0.0881
     24 C          66.5169   93.2692   10.6886 C.1     1  UNL1        0.1004
     25 N          67.6802   94.1267   10.2869 N.1     1  UNL1       -0.1908
     26 O          61.8636   89.8392   12.2955 O.3     1  UNL1       -0.4790
     27 C          59.4888   90.5347   11.5040 C.3     1  UNL1        0.0472
     28 C          60.7026   89.6649   11.3619 C.3     1  UNL1        0.1661
     29 C          60.7554   88.6208   10.2863 C.3     1  UNL1        0.0472
@<TRIPOS>BOND
     1    27    28    1
     2    28    29    1
     3    28    26    1
     4    26    18    1
     5    18    19   ar
     6    19    20   ar
     7    20    21   ar
     8    21    24    1
     9    24    25    3
    10    21    22   ar
    11    22    23   ar
    12    23     1    1
    13     1     2    2
    14     1     3   am
    15     3     4    1
    16     4     5    1
    17     5     6   ar
    18     6     7   ar
    19     7    11    1
    20    11    12   ar
    21    12    13   ar
    22    13    14   ar
    23    14    15   ar
    24    15    16    1
    25    15    17   ar
    26     7     8   ar
    27     8     9   ar
    28     9    10    1
    29    23    18   ar
    30    10     3    1
    31     9     5   ar
    32    17    11   ar
@<TRIPOS>MOLECULE
*****
 29 32 0 0 0
SMALL
GASTEIGER

@<TRIPOS>ATOM
      1 C          62.4027   85.5635   11.4726 C.2     1  UNL1        0.2525
      2 O          62.3342   84.0720   11.3282 O.2     1  UNL1       -0.2698
      3 N          61.7192   86.4462   10.4707 N.am    1  UNL1       -0.2660
      4 C          61.7007   87.9460   10.4846 C.3     1  UNL1        0.1236
      5 C          60.9044   88.4107    9.3015 C.ar    1  UNL1        0.0338
      6 C          60.4007   89.6248    8.5788 C.ar    1  UNL1        0.0991
      7 N          59.6158   89.1627    7.3870 N.ar    1  UNL1       -0.2271
      8 N          59.6343   87.6628    7.3731 N.ar    1  UNL1       -0.1680
      9 C          60.4307   87.1981    8.5563 C.ar    1  UNL1        0.0981
     10 C          60.9343   85.9839    9.2789 C.3     1  UNL1        0.1414
     11 C          58.9324   90.0453    6.3852 C.ar    1  UNL1        0.1042
     12 C          57.4396   90.0044    6.2446 C.ar    1  UNL1        0.1181
     13 N          56.7561   90.8870    5.2427 N.ar    1  UNL1       -0.2384
     14 C          57.5655   91.8106    4.3813 C.ar    1  UNL1        0.1285
     15 C          59.0584   91.8515    4.5219 C.ar    1  UNL1        0.1607
     16 F          59.8678   92.7751    3.6605 F       1  UNL1       -0.2025
     17 C          59.7418   90.9689    5.5238 C.ar    1  UNL1        0.0520
     18 C          63.7908   85.2899   13.6517 C.ar    1  UNL1        0.1427
     19 C          64.5427   85.8987   14.7979 C.ar    1  UNL1        0.0377
     20 C          64.6584   87.3899   14.9114 C.ar    1  UNL1        0.0134
     21 C          64.0222   88.2724   13.8787 C.ar    1  UNL1        0.0688
     22 C          63.2703   87.6635   12.7324 C.ar    1  UNL1        0.0178
     23 C          63.1546   86.1723   12.6188 C.ar    1  UNL1        0.0881
     24 C          64.1380   89.7636   13.9922 C.1     1  UNL1        0.1004
     25 N          64.2537   91.2548   14.1057 N.1     1  UNL1       -0.1908
     26 O          63.6751   83.7987   13.5382 O.3     1  UNL1       -0.4790
     27 C          61.9470   83.7626   15.4778 C.3     1  UNL1        0.0472
     28 C          62.6624   83.0601   14.3622 C.3     1  UNL1        0.1661
     29 C          62.3654   81.6191   14.0706 C.3     1  UNL1        0.0472
@<TRIPOS>BOND
     1    27    28    1
     2    28    29    1
     3    28    26    1
     4    26    18    1
     5    18    19   ar
     6    19    20   ar
     7    20    21   ar
     8    21    24    1
     9    24    25    3
    10    21    22   ar
    11    22    23   ar
    12    23     1    1
    13     1     2    2
    14     1     3   am
    15     3     4    1
    16     4     5    1
    17     5     6   ar
    18     6     7   ar
    19     7    11    1
    20    11    12   ar
    21    12    13   ar
    22    13    14   ar
    23    14    15   ar
    24    15    16    1
    25    15    17   ar
    26     7     8   ar
    27     8     9   ar
    28     9    10    1
    29    23    18   ar
    30    10     3    1
    31     9     5   ar
    32    17    11   ar
@<TRIPOS>MOLECULE
*****
 29 32 0 0 0
SMALL
GASTEIGER

@<TRIPOS>ATOM
      1 C          64.2428   90.4568   15.5611 C.2     1  UNL1        0.2525
      2 O          64.0122   91.0525   16.9183 O.2     1  UNL1       -0.2698
      3 N          63.9972   88.9948   15.3321 N.am    1  UNL1       -0.2660
      4 C          64.1830   88.2619   14.0366 C.3     1  UNL1        0.1236
      5 C          63.8232   86.8233   14.2623 C.ar    1  UNL1        0.0338
      6 C          63.7157   85.4812   13.6012 C.ar    1  UNL1        0.0991
      7 N          63.2410   84.4955   14.6275 N.ar    1  UNL1       -0.2271
      8 N          63.0552   85.2285   15.9230 N.ar    1  UNL1       -0.1680
      9 C          63.4150   86.6671   15.6973 C.ar    1  UNL1        0.0981
     10 C          63.5225   88.0092   16.3584 C.3     1  UNL1        0.1414
     11 C          62.9954   83.0336   14.3985 C.ar    1  UNL1        0.1042
     12 C          64.1468   82.1149   14.1154 C.ar    1  UNL1        0.1181
     13 N          63.9011   80.6529   13.8865 N.ar    1  UNL1       -0.2384
     14 C          62.5040   80.1097   13.9406 C.ar    1  UNL1        0.1285
     15 C          61.3525   81.0285   14.2237 C.ar    1  UNL1        0.1607
     16 F          59.9553   80.4852   14.2778 F       1  UNL1       -0.2025
     17 C          61.5982   82.4904   14.4526 C.ar    1  UNL1        0.0520
     18 C          65.8298   92.3056   14.6590 C.ar    1  UNL1        0.1427
     19 C          66.3061   93.1717   13.5308 C.ar    1  UNL1        0.0377
     20 C          65.6718   93.0554   12.1765 C.ar    1  UNL1        0.0134
     21 C          64.5612   92.0728   11.9503 C.ar    1  UNL1        0.0688
     22 C          64.0849   91.2066   13.0786 C.ar    1  UNL1        0.0178
     23 C          64.7192   91.3230   14.4329 C.ar    1  UNL1        0.0881
     24 C          63.9269   91.9564   10.5960 C.1     1  UNL1        0.1004
     25 N          63.2926   91.8401    9.2417 N.1     1  UNL1       -0.1908
     26 O          66.4641   92.4219   16.0133 O.3     1  UNL1       -0.4790
     27 C          68.3826   94.1693   15.8854 C.3     1  UNL1        0.0472
     28 C          67.9197   92.7641   16.1329 C.3     1  UNL1        0.1661
     29 C          68.9122   91.7011   16.4998 C.3     1  UNL1        0.0472
@<TRIPOS>BOND
     1    27    28    1
     2    28    29    1
     3    28    26    1
     4    26    18    1
     5    18    19   ar
     6    19    20   ar
     7    20    21   ar
     8    21    24    1
     9    24    25    3
    10    21    22   ar
    11    22    23   ar
    12    23     1    1
    13     1     2    2
    14     1     3   am
    15     3     4    1
    16     4     5    1
    17     5     6   ar
    18     6     7   ar
    19     7    11    1
    20    11    12   ar
    21    12    13   ar
    22    13    14   ar
    23    14    15   ar
    24    15    16    1
    25    15    17   ar
    26     7     8   ar
    27     8     9   ar
    28     9    10    1
    29    23    18   ar
    30    10     3    1
    31     9     5   ar
    32    17    11   ar
@<TRIPOS>MOLECULE
*****
 29 32 0 0 0
SMALL
GASTEIGER

@<TRIPOS>ATOM
      1 C          61.8643   86.3470   11.6192 C.2     1  UNL1        0.2525
      2 O          61.6960   85.0714   12.3903 O.2     1  UNL1       -0.2698
      3 N          62.7309   87.4437   12.1634 N.am    1  UNL1       -0.2660
      4 C          62.9927   88.7676   11.5087 C.3     1  UNL1        0.1236
      5 C          63.9114   89.5511   12.3986 C.ar    1  UNL1        0.0338
      6 C          64.6411   90.8536   12.5440 C.ar    1  UNL1        0.0991
      7 N          65.3981   90.8190   13.8385 N.ar    1  UNL1       -0.2271
      8 N          65.1363   89.4950   14.4932 N.ar    1  UNL1       -0.1680
      9 C          64.2175   88.7115   13.6033 C.ar    1  UNL1        0.0981
     10 C          63.4879   87.4090   13.4579 C.3     1  UNL1        0.1414
     11 C          66.2647   91.9156   14.3827 C.ar    1  UNL1        0.1042
     12 C          66.0203   93.3378   13.9732 C.ar    1  UNL1        0.1181
     13 N          66.8870   94.4346   14.5174 N.ar    1  UNL1       -0.2384
     14 C          67.9979   94.1091   15.4712 C.ar    1  UNL1        0.1285
     15 C          68.2423   92.6868   15.8808 C.ar    1  UNL1        0.1607
     16 F          69.3534   92.3614   16.8347 F       1  UNL1       -0.2025
     17 C          67.3757   91.5902   15.3366 C.ar    1  UNL1        0.0520
     18 C          60.1013   87.5721   10.1559 C.ar    1  UNL1        0.1427
     19 C          59.4030   87.7509    8.8405 C.ar    1  UNL1        0.0377
     20 C          59.7692   86.8833    7.6729 C.ar    1  UNL1        0.0134
     21 C          60.8337   85.8370    7.8207 C.ar    1  UNL1        0.0688
     22 C          61.5321   85.6583    9.1362 C.ar    1  UNL1        0.0178
     23 C          61.1659   86.5258   10.3038 C.ar    1  UNL1        0.0881
     24 C          61.1999   84.9695    6.6531 C.1     1  UNL1        0.1004
     25 N          61.5661   84.1019    5.4855 N.1     1  UNL1       -0.1908
     26 O          59.7351   88.4397   11.3235 O.3     1  UNL1       -0.4790
     27 C          60.8836   90.5788   10.3988 C.3     1  UNL1        0.0472
     28 C          59.7877   89.9331   11.1939 C.3     1  UNL1        0.1661
     29 C          58.7445   90.7809   11.8593 C.3     1  UNL1        0.0472
@<TRIPOS>BOND
     1    27    28    1
     2    28    29    1
     3    28    26    1
     4    26    18    1
     5    18    19   ar
     6    19    20   ar
     7    20    21   ar
     8    21    24    1
     9    24    25    3
    10    21    22   ar
    11    22    23   ar
    12    23     1    1
    13     1     2    2
    14     1     3   am
    15     3     4    1
    16     4     5    1
    17     5     6   ar
    18     6     7   ar
    19     7    11    1
    20    11    12   ar
    21    12    13   ar
    22    13    14   ar
    23    14    15   ar
    24    15    16    1
    25    15    17   ar
    26     7     8   ar
    27     8     9   ar
    28     9    10    1
    29    23    18   ar
    30    10     3    1
    31     9     5   ar
    32    17    11   ar
