@<TRIPOS>MOLECULE
*****
 31 33 0 0 0
SMALL
GASTEIGER

@<TRIPOS>ATOM
      1 C          61.1099   89.7769   11.0714 C.2     1  UNL1        0.2271
      2 O          60.4436   88.9700   12.1462 O.2     1  UNL1       -0.2748
      3 N          62.3993   90.4880   11.3578 N.am    1  UNL1       -0.2760
      4 C          63.0223   90.3922   12.7189 C.3     1  UNL1        0.1149
      5 C          64.3116   91.1033   13.0053 C.3     1  UNL1        0.1152
      6 N          64.9778   91.9102   11.9305 N.am    1  UNL1       -0.2726
      7 C          66.2672   92.6213   12.2169 C.2     1  UNL1        0.2491
      8 O          66.9334   93.4281   11.1422 O.2     1  UNL1       -0.2699
      9 C          64.3548   92.0059   10.5694 C.3     1  UNL1        0.1152
     10 C          63.0655   91.2948   10.2831 C.3     1  UNL1        0.1149
     11 C          66.8902   92.5255   13.5780 C.ar    1  UNL1        0.0536
     12 C          68.2611   91.9375   13.7357 C.ar    1  UNL1        0.0045
     13 C          68.8842   91.8418   15.0969 C.ar    1  UNL1        0.0001
     14 C          68.1363   92.3340   16.3003 C.ar    1  UNL1        0.0000
     15 C          66.7653   92.9220   16.1427 C.ar    1  UNL1        0.0001
     16 C          66.1423   93.0177   14.7816 C.ar    1  UNL1        0.0045
     17 C          60.4869   89.8726    9.7103 C.3     1  UNL1        0.1010
     18 N          59.7492   88.6736    7.5267 N.3     1  UNL1       -0.3215
     19 C          60.0526   88.6277    8.9950 C.3     1  UNL1        0.0644
     20 H          59.8896   89.6225    7.1800 H       1  UNL1        0.1188
     21 H          58.7806   88.3945    7.3708 H       1  UNL1        0.1188
     22 C          59.9218   87.3370    9.7478 C.3     1  UNL1        0.0447
     23 C          61.0784   86.3838    9.8088 C.ar    1  UNL1        0.0090
     24 C          61.6401   85.9700   11.1367 C.ar    1  UNL1        0.0300
     25 C          62.7966   85.0168   11.1977 C.ar    1  UNL1        0.1672
     26 F          63.3583   84.6031   12.5256 F       1  UNL1       -0.2018
     27 C          63.3915   84.4774    9.9308 C.ar    1  UNL1        0.1696
     28 F          64.5481   83.5242    9.9917 F       1  UNL1       -0.2017
     29 C          62.8299   84.8911    8.6029 C.ar    1  UNL1        0.0612
     30 C          61.6733   85.8443    8.5419 C.ar    1  UNL1        0.1386
     31 F          61.1116   86.2581    7.2140 F       1  UNL1       -0.2044
@<TRIPOS>BOND
     1    19    18    1
     2    19    17    1
     3    17     1    1
     4     1     2    2
     5     1     3   am
     6     3     4    1
     7     4     5    1
     8     5     6    1
     9     6     7   am
    10     7     8    2
    11     7    11    1
    12    11    12   ar
    13    12    13   ar
    14    13    14   ar
    15    14    15   ar
    16    15    16   ar
    17     6     9    1
    18     9    10    1
    19    19    22    1
    20    22    23    1
    21    23    24   ar
    22    24    25   ar
    23    25    26    1
    24    25    27   ar
    25    27    28    1
    26    27    29   ar
    27    29    30   ar
    28    30    31    1
    29    10     3    1
    30    30    23   ar
    31    16    11   ar
    32    18    20    1
    33    18    21    1
@<TRIPOS>MOLECULE
*****
 31 33 0 0 0
SMALL
GASTEIGER

@<TRIPOS>ATOM
      1 C          61.0978   89.9117   11.0733 C.2     1  UNL1        0.2271
      2 O          60.4034   89.1365   12.1534 O.2     1  UNL1       -0.2748
      3 N          62.4026   90.5940   11.3603 N.am    1  UNL1       -0.2760
      4 C          63.0127   90.5010   12.7274 C.3     1  UNL1        0.1149
      5 C          64.3174   91.1832   13.0143 C.3     1  UNL1        0.1152
      6 N          65.0119   91.9584   11.9342 N.am    1  UNL1       -0.2726
      7 C          66.3166   92.6407   12.2212 C.2     1  UNL1        0.2491
      8 O          67.0111   93.4159   11.1410 O.2     1  UNL1       -0.2699
      9 C          64.4017   92.0514   10.5671 C.3     1  UNL1        0.1152
     10 C          63.0971   91.3692   10.2801 C.3     1  UNL1        0.1149
     11 C          66.9268   92.5477   13.5883 C.ar    1  UNL1        0.0536
     12 C          68.3474   92.0928   13.7462 C.ar    1  UNL1        0.0045
     13 C          68.9576   91.9998   15.1134 C.ar    1  UNL1        0.0001
     14 C          68.1471   92.3617   16.3226 C.ar    1  UNL1        0.0000
     15 C          66.7265   92.8166   16.1647 C.ar    1  UNL1        0.0001
     16 C          66.1163   92.9096   14.7976 C.ar    1  UNL1        0.0045
     17 C          60.4877   90.0047    9.7062 C.3     1  UNL1        0.1010
     18 N          59.7191   88.8105    7.5306 N.3     1  UNL1       -0.3215
     19 C          60.0552   88.7588    8.9915 C.3     1  UNL1        0.0644
     20 H          59.8387   89.7637    7.1877 H       1  UNL1        0.1188
     21 H          58.7513   88.5189    7.3938 H       1  UNL1        0.1188
     22 C          59.9588   87.4612    9.7378 C.3     1  UNL1        0.0447
     23 C          61.0605   86.4492    9.6279 C.ar    1  UNL1        0.0090
     24 C          61.5776   86.0471    8.2784 C.ar    1  UNL1        0.0300
     25 C          62.6793   85.0351    8.1685 C.ar    1  UNL1        0.1672
     26 F          63.1963   84.6330    6.8191 F       1  UNL1       -0.2018
     27 C          63.2639   84.4251    9.4079 C.ar    1  UNL1        0.1696
     28 F          64.3655   83.4131    9.2980 F       1  UNL1       -0.2017
     29 C          62.7468   84.8272   10.7573 C.ar    1  UNL1        0.0612
     30 C          61.6451   85.8393   10.8673 C.ar    1  UNL1        0.1386
     31 F          61.1280   86.2414   12.2167 F       1  UNL1       -0.2044
@<TRIPOS>BOND
     1    19    18    1
     2    19    17    1
     3    17     1    1
     4     1     2    2
     5     1     3   am
     6     3     4    1
     7     4     5    1
     8     5     6    1
     9     6     7   am
    10     7     8    2
    11     7    11    1
    12    11    12   ar
    13    12    13   ar
    14    13    14   ar
    15    14    15   ar
    16    15    16   ar
    17     6     9    1
    18     9    10    1
    19    19    22    1
    20    22    23    1
    21    23    24   ar
    22    24    25   ar
    23    25    26    1
    24    25    27   ar
    25    27    28    1
    26    27    29   ar
    27    29    30   ar
    28    30    31    1
    29    10     3    1
    30    30    23   ar
    31    16    11   ar
    32    18    20    1
    33    18    21    1
@<TRIPOS>MOLECULE
*****
 31 33 0 0 0
SMALL
GASTEIGER

@<TRIPOS>ATOM
      1 C          61.7466   89.2451   10.5713 C.2     1  UNL1        0.2271
      2 O          61.0715   89.3942    9.2402 O.2     1  UNL1       -0.2748
      3 N          62.8164   90.2129   10.9823 N.am    1  UNL1       -0.2760
      4 C          63.2112   91.3298   10.0622 C.3     1  UNL1        0.1149
      5 C          64.2810   92.2975   10.4732 C.3     1  UNL1        0.1152
      6 N          64.9560   92.1484   11.8044 N.am    1  UNL1       -0.2726
      7 C          66.0259   93.1163   12.2154 C.2     1  UNL1        0.2491
      8 O          66.7009   92.9671   13.5466 O.2     1  UNL1       -0.2699
      9 C          64.5613   91.0316   12.7245 C.3     1  UNL1        0.1152
     10 C          63.4915   90.0638   12.3135 C.3     1  UNL1        0.1149
     11 C          66.4206   94.2331   11.2952 C.ar    1  UNL1        0.0536
     12 C          66.0470   95.6471   11.6285 C.ar    1  UNL1        0.0045
     13 C          66.4418   96.7640   10.7083 C.ar    1  UNL1        0.0001
     14 C          67.2101   96.4669    9.4548 C.ar    1  UNL1        0.0000
     15 C          67.5837   95.0529    9.1214 C.ar    1  UNL1        0.0001
     16 C          67.1889   93.9360   10.0416 C.ar    1  UNL1        0.0045
     17 C          61.3519   88.1283   11.4915 C.3     1  UNL1        0.1010
     18 N          61.0041   85.9727   10.0834 N.3     1  UNL1       -0.3215
     19 C          61.7339   86.7153   11.1631 C.3     1  UNL1        0.0644
     20 H          60.2857   86.5755    9.6821 H       1  UNL1        0.1188
     21 H          60.5674   85.1401   10.4789 H       1  UNL1        0.1188
     22 C          62.8458   86.0451   11.9145 C.3     1  UNL1        0.0447
     23 C          62.8608   84.5520   12.0575 C.ar    1  UNL1        0.0090
     24 C          62.3912   83.9159   13.3322 C.ar    1  UNL1        0.0300
     25 C          62.4063   82.4229   13.4753 C.ar    1  UNL1        0.1672
     26 F          61.9367   81.7868   14.7500 F       1  UNL1       -0.2018
     27 C          62.8909   81.5659   12.3436 C.ar    1  UNL1        0.1696
     28 F          62.9060   80.0728   12.4867 F       1  UNL1       -0.2017
     29 C          63.3605   82.2019   11.0689 C.ar    1  UNL1        0.0612
     30 C          63.3455   83.6950   10.9259 C.ar    1  UNL1        0.1386
     31 F          63.8151   84.3311    9.6512 F       1  UNL1       -0.2044
@<TRIPOS>BOND
     1    19    18    1
     2    19    17    1
     3    17     1    1
     4     1     2    2
     5     1     3   am
     6     3     4    1
     7     4     5    1
     8     5     6    1
     9     6     7   am
    10     7     8    2
    11     7    11    1
    12    11    12   ar
    13    12    13   ar
    14    13    14   ar
    15    14    15   ar
    16    15    16   ar
    17     6     9    1
    18     9    10    1
    19    19    22    1
    20    22    23    1
    21    23    24   ar
    22    24    25   ar
    23    25    26    1
    24    25    27   ar
    25    27    28    1
    26    27    29   ar
    27    29    30   ar
    28    30    31    1
    29    10     3    1
    30    30    23   ar
    31    16    11   ar
    32    18    20    1
    33    18    21    1
@<TRIPOS>MOLECULE
*****
 31 33 0 0 0
SMALL
GASTEIGER

@<TRIPOS>ATOM
      1 C          63.4315   90.4143   12.4724 C.2     1  UNL1        0.2271
      2 O          62.7982   90.7012   11.1433 O.2     1  UNL1       -0.2748
      3 N          63.5921   88.9969   12.9364 N.am    1  UNL1       -0.2760
      4 C          63.1193   87.8664   12.0713 C.3     1  UNL1        0.1149
      5 C          63.2800   86.4491   12.5353 C.3     1  UNL1        0.1152
      6 N          63.9133   86.1623   13.8644 N.am    1  UNL1       -0.2726
      7 C          64.0739   84.7448   14.3284 C.2     1  UNL1        0.2491
      8 O          64.7072   84.4580   15.6575 O.2     1  UNL1       -0.2699
      9 C          64.3860   87.2927   14.7296 C.3     1  UNL1        0.1152
     10 C          64.2254   88.7101   14.2656 C.3     1  UNL1        0.1149
     11 C          63.6011   83.6144   13.4632 C.ar    1  UNL1        0.0536
     12 C          64.2307   83.3828   12.1216 C.ar    1  UNL1        0.0045
     13 C          63.7579   82.2522   11.2564 C.ar    1  UNL1        0.0001
     14 C          62.6557   81.3534   11.7329 C.ar    1  UNL1        0.0000
     15 C          62.0262   81.5850   13.0746 C.ar    1  UNL1        0.0001
     16 C          62.4989   82.7154   13.9397 C.ar    1  UNL1        0.0045
     17 C          63.9042   91.5448   13.3376 C.3     1  UNL1        0.1010
     18 N          65.9379   92.8423   14.3023 N.3     1  UNL1       -0.3215
     19 C          65.2988   92.0753   13.1829 C.3     1  UNL1        0.0644
     20 H          65.2870   92.9074   15.0849 H       1  UNL1        0.1188
     21 H          66.1762   93.7800   13.9794 H       1  UNL1        0.1188
     22 C          66.0541   91.8387   11.9088 C.3     1  UNL1        0.0447
     23 C          66.4693   93.0008   11.0562 C.ar    1  UNL1        0.0090
     24 C          65.8419   94.3471   11.2662 C.ar    1  UNL1        0.0300
     25 C          66.2571   95.5093   10.4137 C.ar    1  UNL1        0.1672
     26 F          65.6297   96.8554   10.6237 F       1  UNL1       -0.2018
     27 C          67.2997   95.3253    9.3511 C.ar    1  UNL1        0.1696
     28 F          67.7148   96.4875    8.4985 F       1  UNL1       -0.2017
     29 C          67.9271   93.9791    9.1410 C.ar    1  UNL1        0.0612
     30 C          67.5119   92.8168    9.9936 C.ar    1  UNL1        0.1386
     31 F          68.1393   91.4707    9.7835 F       1  UNL1       -0.2044
@<TRIPOS>BOND
     1    19    18    1
     2    19    17    1
     3    17     1    1
     4     1     2    2
     5     1     3   am
     6     3     4    1
     7     4     5    1
     8     5     6    1
     9     6     7   am
    10     7     8    2
    11     7    11    1
    12    11    12   ar
    13    12    13   ar
    14    13    14   ar
    15    14    15   ar
    16    15    16   ar
    17     6     9    1
    18     9    10    1
    19    19    22    1
    20    22    23    1
    21    23    24   ar
    22    24    25   ar
    23    25    26    1
    24    25    27   ar
    25    27    28    1
    26    27    29   ar
    27    29    30   ar
    28    30    31    1
    29    10     3    1
    30    30    23   ar
    31    16    11   ar
    32    18    20    1
    33    18    21    1
@<TRIPOS>MOLECULE
*****
 31 33 0 0 0
SMALL
GASTEIGER

@<TRIPOS>ATOM
      1 C          62.8617   89.1981   11.4677 C.2     1  UNL1        0.2271
      2 O          62.0133   89.1846   10.2308 O.2     1  UNL1       -0.2748
      3 N          63.1063   87.9256   12.2234 N.am    1  UNL1       -0.2760
      4 C          62.5024   86.6397   11.7422 C.3     1  UNL1        0.1149
      5 C          62.7469   85.3673   12.4978 C.3     1  UNL1        0.1152
      6 N          63.5953   85.3808   13.7348 N.am    1  UNL1       -0.2726
      7 C          63.8399   84.1083   14.4905 C.2     1  UNL1        0.2491
      8 O          64.6883   84.1218   15.7274 O.2     1  UNL1       -0.2699
      9 C          64.1992   86.6667   14.2160 C.3     1  UNL1        0.1152
     10 C          63.9547   87.9391   13.4603 C.3     1  UNL1        0.1149
     11 C          63.2360   82.8223   14.0092 C.ar    1  UNL1        0.0536
     12 C          61.9456   82.3334   14.5972 C.ar    1  UNL1        0.0045
     13 C          61.3417   81.0474   14.1159 C.ar    1  UNL1        0.0001
     14 C          62.0283   80.2504   13.0466 C.ar    1  UNL1        0.0000
     15 C          63.3187   80.7393   12.4586 C.ar    1  UNL1        0.0001
     16 C          63.9226   82.0252   12.9399 C.ar    1  UNL1        0.0045
     17 C          63.4656   90.4841   11.9490 C.3     1  UNL1        0.1010
     18 N          63.0725   91.7383    9.7079 N.3     1  UNL1       -0.3215
     19 C          63.8712   91.5380   10.9616 C.3     1  UNL1        0.0644
     20 H          62.2955   91.0777    9.6906 H       1  UNL1        0.1188
     21 H          63.6695   91.5823    8.8958 H       1  UNL1        0.1188
     22 C          65.0756   92.3915   11.2280 C.3     1  UNL1        0.0447
     23 C          65.8323   92.2403   12.5142 C.ar    1  UNL1        0.0090
     24 C          65.1033   92.2942   13.8241 C.ar    1  UNL1        0.0300
     25 C          65.8599   92.1430   15.1104 C.ar    1  UNL1        0.1672
     26 F          65.1309   92.1968   16.4201 F       1  UNL1       -0.2018
     27 C          67.3457   91.9379   15.0869 C.ar    1  UNL1        0.1696
     28 F          68.1023   91.7867   16.3731 F       1  UNL1       -0.2017
     29 C          68.0747   91.8840   13.7771 C.ar    1  UNL1        0.0612
     30 C          67.3180   92.0352   12.4907 C.ar    1  UNL1        0.1386
     31 F          68.0471   91.9813   11.1810 F       1  UNL1       -0.2044
@<TRIPOS>BOND
     1    19    18    1
     2    19    17    1
     3    17     1    1
     4     1     2    2
     5     1     3   am
     6     3     4    1
     7     4     5    1
     8     5     6    1
     9     6     7   am
    10     7     8    2
    11     7    11    1
    12    11    12   ar
    13    12    13   ar
    14    13    14   ar
    15    14    15   ar
    16    15    16   ar
    17     6     9    1
    18     9    10    1
    19    19    22    1
    20    22    23    1
    21    23    24   ar
    22    24    25   ar
    23    25    26    1
    24    25    27   ar
    25    27    28    1
    26    27    29   ar
    27    29    30   ar
    28    30    31    1
    29    10     3    1
    30    30    23   ar
    31    16    11   ar
    32    18    20    1
    33    18    21    1
@<TRIPOS>MOLECULE
*****
 31 33 0 0 0
SMALL
GASTEIGER

@<TRIPOS>ATOM
      1 C          61.9217   89.1771   10.6722 C.2     1  UNL1        0.2271
      2 O          61.2948   89.2209    9.3102 O.2     1  UNL1       -0.2748
      3 N          62.9427   90.2049   11.0613 N.am    1  UNL1       -0.2760
      4 C          63.3367   91.2763   10.0884 C.3     1  UNL1        0.1149
      5 C          64.3577   92.3040   10.4775 C.3     1  UNL1        0.1152
      6 N          64.9845   92.2603   11.8395 N.am    1  UNL1       -0.2726
      7 C          66.0055   93.2881   12.2286 C.2     1  UNL1        0.2491
      8 O          66.6324   93.2443   13.5907 O.2     1  UNL1       -0.2699
      9 C          64.5904   91.1888   12.8125 C.3     1  UNL1        0.1152
     10 C          63.5695   90.1611   12.4233 C.3     1  UNL1        0.1149
     11 C          66.3996   94.3595   11.2557 C.ar    1  UNL1        0.0536
     12 C          67.1878   94.0061   10.0294 C.ar    1  UNL1        0.0045
     13 C          67.5819   95.0776    9.0565 C.ar    1  UNL1        0.0001
     14 C          67.1878   96.5026    9.3098 C.ar    1  UNL1        0.0000
     15 C          66.3996   96.8560   10.5361 C.ar    1  UNL1        0.0001
     16 C          66.0055   95.7845   11.5091 C.ar    1  UNL1        0.0045
     17 C          61.5276   88.1056   11.6451 C.3     1  UNL1        0.1010
     18 N          61.2386   85.9563   10.2144 N.3     1  UNL1       -0.3215
     19 C          61.8774   86.6738   11.3664 C.3     1  UNL1        0.0644
     20 H          60.5984   86.5880    9.7333 H       1  UNL1        0.1188
     21 H          60.7221   85.1481   10.5615 H       1  UNL1        0.1188
     22 C          62.8661   85.9597   12.2395 C.3     1  UNL1        0.0447
     23 C          62.8453   84.4624   12.3267 C.ar    1  UNL1        0.0090
     24 C          63.2220   83.6362   11.1327 C.ar    1  UNL1        0.0300
     25 C          63.2012   82.1389   11.2199 C.ar    1  UNL1        0.1672
     26 F          63.5779   81.3129   10.0259 F       1  UNL1       -0.2018
     27 C          62.8037   81.4677   12.5011 C.ar    1  UNL1        0.1696
     28 F          62.7829   79.9704   12.5882 F       1  UNL1       -0.2017
     29 C          62.4270   82.2938   13.6951 C.ar    1  UNL1        0.0612
     30 C          62.4478   83.7911   13.6079 C.ar    1  UNL1        0.1386
     31 F          62.0711   84.6172   14.8019 F       1  UNL1       -0.2044
@<TRIPOS>BOND
     1    19    18    1
     2    19    17    1
     3    17     1    1
     4     1     2    2
     5     1     3   am
     6     3     4    1
     7     4     5    1
     8     5     6    1
     9     6     7   am
    10     7     8    2
    11     7    11    1
    12    11    12   ar
    13    12    13   ar
    14    13    14   ar
    15    14    15   ar
    16    15    16   ar
    17     6     9    1
    18     9    10    1
    19    19    22    1
    20    22    23    1
    21    23    24   ar
    22    24    25   ar
    23    25    26    1
    24    25    27   ar
    25    27    28    1
    26    27    29   ar
    27    29    30   ar
    28    30    31    1
    29    10     3    1
    30    30    23   ar
    31    16    11   ar
    32    18    20    1
    33    18    21    1
@<TRIPOS>MOLECULE
*****
 31 33 0 0 0
SMALL
GASTEIGER

@<TRIPOS>ATOM
      1 C          62.6068   89.8024   11.7065 C.2     1  UNL1        0.2271
      2 O          61.8701   89.9803   10.4121 O.2     1  UNL1       -0.2748
      3 N          62.9536   88.4250   12.1889 N.am    1  UNL1       -0.2760
      4 C          62.5637   87.2256   11.3769 C.3     1  UNL1        0.1149
      5 C          62.9105   85.8484   11.8593 C.3     1  UNL1        0.1152
      6 N          63.6472   85.6704   13.1537 N.am    1  UNL1       -0.2726
      7 C          63.9940   84.2931   13.6361 C.2     1  UNL1        0.2491
      8 O          64.7307   84.1151   14.9306 O.2     1  UNL1       -0.2699
      9 C          64.0371   86.8698   13.9658 C.3     1  UNL1        0.1152
     10 C          63.6903   88.2471   13.4834 C.3     1  UNL1        0.1149
     11 C          63.6041   83.0937   12.8241 C.ar    1  UNL1        0.0536
     12 C          62.7287   82.0338   13.4244 C.ar    1  UNL1        0.0045
     13 C          62.3388   80.8344   12.6123 C.ar    1  UNL1        0.0001
     14 C          62.8243   80.6949   11.1999 C.ar    1  UNL1        0.0000
     15 C          63.6996   81.7548   10.5996 C.ar    1  UNL1        0.0001
     16 C          64.0895   82.9542   11.4116 C.ar    1  UNL1        0.0045
     17 C          62.9967   91.0017   12.5186 C.3     1  UNL1        0.1010
     18 N          65.0873   92.3123   11.7049 N.3     1  UNL1       -0.3215
     19 C          64.4440   91.3645   12.6733 C.3     1  UNL1        0.0644
     20 H          64.3999   92.6094   11.0124 H       1  UNL1        0.1188
     21 H          65.8626   91.8445   11.2354 H       1  UNL1        0.1188
     22 C          65.2479   90.7794   13.7964 C.3     1  UNL1        0.0447
     23 C          66.3498   91.5790   14.4258 C.ar    1  UNL1        0.0090
     24 C          67.7079   91.6150   13.7899 C.ar    1  UNL1        0.0300
     25 C          68.8099   92.4147   14.4193 C.ar    1  UNL1        0.1672
     26 F          70.1679   92.4506   13.7833 F       1  UNL1       -0.2018
     27 C          68.5538   93.1783   15.6847 C.ar    1  UNL1        0.1696
     28 F          69.6558   93.9780   16.3141 F       1  UNL1       -0.2017
     29 C          67.1959   93.1424   16.3207 C.ar    1  UNL1        0.0612
     30 C          66.0938   92.3427   15.6912 C.ar    1  UNL1        0.1386
     31 F          64.7358   92.3068   16.3272 F       1  UNL1       -0.2044
@<TRIPOS>BOND
     1    19    18    1
     2    19    17    1
     3    17     1    1
     4     1     2    2
     5     1     3   am
     6     3     4    1
     7     4     5    1
     8     5     6    1
     9     6     7   am
    10     7     8    2
    11     7    11    1
    12    11    12   ar
    13    12    13   ar
    14    13    14   ar
    15    14    15   ar
    16    15    16   ar
    17     6     9    1
    18     9    10    1
    19    19    22    1
    20    22    23    1
    21    23    24   ar
    22    24    25   ar
    23    25    26    1
    24    25    27   ar
    25    27    28    1
    26    27    29   ar
    27    29    30   ar
    28    30    31    1
    29    10     3    1
    30    30    23   ar
    31    16    11   ar
    32    18    20    1
    33    18    21    1
@<TRIPOS>MOLECULE
*****
 31 33 0 0 0
SMALL
GASTEIGER

@<TRIPOS>ATOM
      1 C          63.7888   88.4761   13.5657 C.2     1  UNL1        0.2271
      2 O          62.9795   87.9398   12.4222 O.2     1  UNL1       -0.2748
      3 N          64.4588   89.8131   13.4482 N.am    1  UNL1       -0.2760
      4 C          64.3195   90.6136   12.1874 C.3     1  UNL1        0.1149
      5 C          64.9895   91.9505   12.0700 C.3     1  UNL1        0.1152
      6 N          65.7988   92.4868   13.2135 N.am    1  UNL1       -0.2726
      7 C          66.4688   93.8238   13.0960 C.2     1  UNL1        0.2491
      8 O          67.2780   94.3601   14.2395 O.2     1  UNL1       -0.2699
      9 C          65.9380   91.6863   14.4743 C.3     1  UNL1        0.1152
     10 C          65.2680   90.3494   14.5917 C.3     1  UNL1        0.1149
     11 C          66.3295   94.6243   11.8352 C.ar    1  UNL1        0.0536
     12 C          66.6533   93.9996   10.5105 C.ar    1  UNL1        0.0045
     13 C          66.5140   94.8002    9.2496 C.ar    1  UNL1        0.0001
     14 C          66.0510   96.2254    9.3135 C.ar    1  UNL1        0.0000
     15 C          65.7272   96.8502   10.6382 C.ar    1  UNL1        0.0001
     16 C          65.8664   96.0497   11.8990 C.ar    1  UNL1        0.0045
     17 C          63.9280   87.6756   14.8265 C.3     1  UNL1        0.1010
     18 N          65.6007   85.6875   14.8278 N.3     1  UNL1       -0.3215
     19 C          64.1933   86.2010   14.7532 C.3     1  UNL1        0.0644
     20 H          66.2443   86.4727   14.9265 H       1  UNL1        0.1188
     21 H          65.8205   85.1729   13.9750 H       1  UNL1        0.1188
     22 C          63.0512   85.2400   14.6055 C.3     1  UNL1        0.0447
     23 C          63.0826   84.1979   13.5270 C.ar    1  UNL1        0.0090
     24 C          63.5315   84.5638   12.1433 C.ar    1  UNL1        0.0300
     25 C          63.5630   83.5218   11.0649 C.ar    1  UNL1        0.1672
     26 F          64.0119   83.8877    9.6812 F       1  UNL1       -0.2018
     27 C          63.1456   82.1137   11.3701 C.ar    1  UNL1        0.1696
     28 F          63.1771   81.0716   10.2917 F       1  UNL1       -0.2017
     29 C          62.6967   81.7477   12.7537 C.ar    1  UNL1        0.0612
     30 C          62.6652   82.7898   13.8322 C.ar    1  UNL1        0.1386
     31 F          62.2163   82.4239   15.2159 F       1  UNL1       -0.2044
@<TRIPOS>BOND
     1    19    18    1
     2    19    17    1
     3    17     1    1
     4     1     2    2
     5     1     3   am
     6     3     4    1
     7     4     5    1
     8     5     6    1
     9     6     7   am
    10     7     8    2
    11     7    11    1
    12    11    12   ar
    13    12    13   ar
    14    13    14   ar
    15    14    15   ar
    16    15    16   ar
    17     6     9    1
    18     9    10    1
    19    19    22    1
    20    22    23    1
    21    23    24   ar
    22    24    25   ar
    23    25    26    1
    24    25    27   ar
    25    27    28    1
    26    27    29   ar
    27    29    30   ar
    28    30    31    1
    29    10     3    1
    30    30    23   ar
    31    16    11   ar
    32    18    20    1
    33    18    21    1
@<TRIPOS>MOLECULE
*****
 31 33 0 0 0
SMALL
GASTEIGER

@<TRIPOS>ATOM
      1 C          64.3173   90.1989   13.9133 C.2     1  UNL1        0.2271
      2 O          65.1426   90.2449   15.1650 O.2     1  UNL1       -0.2748
      3 N          63.8628   88.8796   13.3626 N.am    1  UNL1       -0.2760
      4 C          64.2335   87.6065   14.0638 C.3     1  UNL1        0.1149
      5 C          63.7789   86.2874   13.5131 C.3     1  UNL1        0.1152
      6 N          62.9537   86.2414   12.2614 N.am    1  UNL1       -0.2726
      7 C          62.4991   84.9221   11.7108 C.2     1  UNL1        0.2491
      8 O          61.6739   84.8761   10.4591 O.2     1  UNL1       -0.2699
      9 C          62.5830   87.5145   11.5603 C.3     1  UNL1        0.1152
     10 C          63.0375   88.8337   12.1109 C.3     1  UNL1        0.1149
     11 C          62.8699   83.6490   12.4119 C.ar    1  UNL1        0.0536
     12 C          64.0678   82.8664   11.9620 C.ar    1  UNL1        0.0045
     13 C          64.4385   81.5932   12.6632 C.ar    1  UNL1        0.0001
     14 C          63.6113   81.1026   13.8142 C.ar    1  UNL1        0.0000
     15 C          62.4133   81.8852   14.2641 C.ar    1  UNL1        0.0001
     16 C          62.0426   83.1584   13.5630 C.ar    1  UNL1        0.0045
     17 C          63.9466   91.4720   13.2121 C.3     1  UNL1        0.1010
     18 N          63.7546   91.7665   10.6379 N.3     1  UNL1       -0.3215
     19 C          64.5747   91.8122   11.8931 C.3     1  UNL1        0.0644
     20 H          62.8002   91.4874   10.8653 H       1  UNL1        0.1188
     21 H          64.1612   91.0912    9.9905 H       1  UNL1        0.1188
     22 C          66.0228   92.1980   11.8292 C.3     1  UNL1        0.0447
     23 C          66.4841   93.2164   10.8293 C.ar    1  UNL1        0.0090
     24 C          65.7647   94.5270   10.7071 C.ar    1  UNL1        0.0300
     25 C          66.2261   95.5455    9.7072 C.ar    1  UNL1        0.1672
     26 F          65.5067   96.8560    9.5851 F       1  UNL1       -0.2018
     27 C          67.4068   95.2534    8.8294 C.ar    1  UNL1        0.1696
     28 F          67.8682   96.2719    7.8295 F       1  UNL1       -0.2017
     29 C          68.1262   93.9429    8.9516 C.ar    1  UNL1        0.0612
     30 C          67.6649   92.9244    9.9515 C.ar    1  UNL1        0.1386
     31 F          68.3843   91.6138   10.0736 F       1  UNL1       -0.2044
@<TRIPOS>BOND
     1    19    18    1
     2    19    17    1
     3    17     1    1
     4     1     2    2
     5     1     3   am
     6     3     4    1
     7     4     5    1
     8     5     6    1
     9     6     7   am
    10     7     8    2
    11     7    11    1
    12    11    12   ar
    13    12    13   ar
    14    13    14   ar
    15    14    15   ar
    16    15    16   ar
    17     6     9    1
    18     9    10    1
    19    19    22    1
    20    22    23    1
    21    23    24   ar
    22    24    25   ar
    23    25    26    1
    24    25    27   ar
    25    27    28    1
    26    27    29   ar
    27    29    30   ar
    28    30    31    1
    29    10     3    1
    30    30    23   ar
    31    16    11   ar
    32    18    20    1
    33    18    21    1
