@<TRIPOS>MOLECULE
*****
 38 41 0 0 0
SMALL
GASTEIGER

@<TRIPOS>ATOM
      1 N          63.5919   86.9090   12.9922 N.ar    1  UNL1       -0.2754
      2 C          62.7342   86.5333   11.8204 C.ar    1  UNL1        0.0848
      3 C          62.0820   87.6025   10.9949 C.ar    1  UNL1        0.0744
      4 C          62.2875   89.0475   11.3414 C.ar    1  UNL1        0.2657
      5 O          61.6352   90.1167   10.5159 O.2     1  UNL1       -0.2668
      6 N          63.1451   89.4231   12.5132 N.ar    1  UNL1       -0.2470
      7 C          63.7973   88.3539   13.3386 C.ar    1  UNL1        0.3341
      8 O          64.6551   88.7296   14.5105 O.2     1  UNL1       -0.2462
      9 C          61.2243   87.2268    9.8231 C.ar    1  UNL1        0.0166
     10 C          59.8611   87.8328    9.6666 C.ar    1  UNL1        0.0010
     11 C          59.0033   87.4571    8.4947 C.ar    1  UNL1        0.0001
     12 C          59.5088   86.4755    7.4794 C.ar    1  UNL1        0.0009
     13 C          60.8721   85.8696    7.6359 C.ar    1  UNL1        0.0114
     14 C          61.7298   86.2453    8.8077 C.ar    1  UNL1        0.0578
     15 CL         63.0930   85.6393    8.9642 Cl      1  UNL1       -0.0822
     16 C          64.2441   85.8397   13.8177 C.3     1  UNL1        0.1408
     17 C          62.7828   84.1681   15.1669 C.ar    1  UNL1        0.1057
     18 C          62.1344   82.8219   15.2982 C.ar    1  UNL1        0.0182
     19 C          62.2990   81.8010   14.2116 C.ar    1  UNL1        0.0036
     20 C          63.1120   82.1264   12.9937 C.ar    1  UNL1        0.0295
     21 C          63.7603   83.4726   12.8624 C.ar    1  UNL1        0.1392
     22 F          64.5733   83.7979   11.6445 F       1  UNL1       -0.2044
     23 C          63.5957   84.4934   13.9490 C.ar    1  UNL1        0.0451
     24 C          62.4536   86.2100   17.3400 C.3     1  UNL1        0.1816
     25 S          62.6182   85.1891   16.2535 S.O2    1  UNL1        0.0103
     26 O          64.0974   85.1641   16.5011 O.2     1  UNL1       -0.1686
     27 O          61.1390   85.2141   16.0059 O.2     1  UNL1       -0.1686
     28 C          63.3506   90.8681   12.8596 C.3     1  UNL1        0.1334
     29 C          64.6230   91.5594   12.4686 C.3     1  UNL1        0.0968
     30 N          64.8539   91.9537   11.0399 N.3     1  UNL1       -0.3172
     31 H          65.7628   92.4089   10.9554 H       1  UNL1        0.1192
     32 H          64.1217   92.5985   10.7425 H       1  UNL1        0.1192
     33 C          65.6645   91.8566   13.5063 C.ar    1  UNL1       -0.0063
     34 C          67.1120   91.9233   13.1186 C.ar    1  UNL1       -0.0029
     35 C          68.1535   92.2205   14.1564 C.ar    1  UNL1       -0.0003
     36 C          67.7476   92.4510   15.5818 C.ar    1  UNL1       -0.0000
     37 C          66.3001   92.3844   15.9696 C.ar    1  UNL1       -0.0003
     38 C          65.2586   92.0872   14.9319 C.ar    1  UNL1       -0.0029
@<TRIPOS>BOND
     1    24    25    1
     2    25    26    2
     3    25    27    2
     4    25    17    1
     5    17    18   ar
     6    18    19   ar
     7    19    20   ar
     8    20    21   ar
     9    21    22    1
    10    21    23   ar
    11    23    16    1
    12    16     1    1
    13     1     2   ar
    14     2     3   ar
    15     3     9    1
    16     9    10   ar
    17    10    11   ar
    18    11    12   ar
    19    12    13   ar
    20    13    14   ar
    21    14    15    1
    22     3     4   ar
    23     4     5    2
    24     4     6   ar
    25     6    28    1
    26    28    29    1
    27    29    30    1
    28    29    33    1
    29    33    34   ar
    30    34    35   ar
    31    35    36   ar
    32    36    37   ar
    33    37    38   ar
    34     6     7   ar
    35     7     8    2
    36    23    17   ar
    37     7     1   ar
    38    14     9   ar
    39    38    33   ar
    40    30    31    1
    41    30    32    1
@<TRIPOS>MOLECULE
*****
 38 41 0 0 0
SMALL
GASTEIGER

@<TRIPOS>ATOM
      1 N          62.8907   87.1345   11.4091 N.ar    1  UNL1       -0.2754
      2 C          62.6956   85.6547   11.5577 C.ar    1  UNL1        0.0848
      3 C          63.0340   84.9800   12.8539 C.ar    1  UNL1        0.0744
      4 C          63.5677   85.7851   14.0016 C.ar    1  UNL1        0.2657
      5 O          63.9061   85.1104   15.2978 O.2     1  UNL1       -0.2668
      6 N          63.7628   87.2649   13.8530 N.ar    1  UNL1       -0.2470
      7 C          63.4243   87.9396   12.5567 C.ar    1  UNL1        0.3341
      8 O          63.6194   89.4195   12.4082 O.2     1  UNL1       -0.2462
      9 C          62.8389   83.5002   13.0025 C.ar    1  UNL1        0.0166
     10 C          61.9452   82.9663   14.0824 C.ar    1  UNL1        0.0010
     11 C          61.7500   81.4864   14.2310 C.ar    1  UNL1        0.0001
     12 C          62.4487   80.5406   13.2998 C.ar    1  UNL1        0.0009
     13 C          63.3424   81.0745   12.2199 C.ar    1  UNL1        0.0114
     14 C          63.5375   82.5543   12.0713 C.ar    1  UNL1        0.0578
     15 CL         64.4313   83.0882   10.9914 Cl      1  UNL1       -0.0822
     16 C          62.5522   87.8092   10.1129 C.3     1  UNL1        0.1408
     17 C          60.0307   88.0078    9.5188 C.ar    1  UNL1        0.1057
     18 C          58.8437   87.5515    8.7235 C.ar    1  UNL1        0.0182
     19 C          58.9910   86.4404    7.7267 C.ar    1  UNL1        0.0036
     20 C          60.3254   85.7855    7.5253 C.ar    1  UNL1        0.0295
     21 C          61.5124   86.2418    8.3206 C.ar    1  UNL1        0.1392
     22 F          62.8468   85.5869    8.1192 F       1  UNL1       -0.2044
     23 C          61.3651   87.3529    9.3174 C.ar    1  UNL1        0.0451
     24 C          59.7362   90.2301   11.5125 C.3     1  UNL1        0.1816
     25 S          59.8835   89.1190   10.5157 S.O2    1  UNL1        0.0103
     26 O          60.0932   90.1261    9.4241 O.2     1  UNL1       -0.1686
     27 O          59.6738   88.1119   11.6073 O.2     1  UNL1       -0.1686
     28 C          64.2964   88.0701   15.0006 C.3     1  UNL1        0.1334
     29 C          63.7707   89.4515   15.2561 C.3     1  UNL1        0.0968
     30 N          62.2988   89.6711   15.4439 N.3     1  UNL1       -0.3172
     31 H          62.1209   90.6622   15.6061 H       1  UNL1        0.1192
     32 H          61.9742   89.1315   16.2463 H       1  UNL1        0.1192
     33 C          64.7170   90.6133   15.3240 C.ar    1  UNL1       -0.0063
     34 C          65.8173   90.7445   14.3129 C.ar    1  UNL1       -0.0029
     35 C          66.7636   91.9065   14.3808 C.ar    1  UNL1       -0.0003
     36 C          66.6096   92.9371   15.4596 C.ar    1  UNL1       -0.0000
     37 C          65.5093   92.8059   16.4707 C.ar    1  UNL1       -0.0003
     38 C          64.5631   91.6440   16.4029 C.ar    1  UNL1       -0.0029
@<TRIPOS>BOND
     1    24    25    1
     2    25    26    2
     3    25    27    2
     4    25    17    1
     5    17    18   ar
     6    18    19   ar
     7    19    20   ar
     8    20    21   ar
     9    21    22    1
    10    21    23   ar
    11    23    16    1
    12    16     1    1
    13     1     2   ar
    14     2     3   ar
    15     3     9    1
    16     9    10   ar
    17    10    11   ar
    18    11    12   ar
    19    12    13   ar
    20    13    14   ar
    21    14    15    1
    22     3     4   ar
    23     4     5    2
    24     4     6   ar
    25     6    28    1
    26    28    29    1
    27    29    30    1
    28    29    33    1
    29    33    34   ar
    30    34    35   ar
    31    35    36   ar
    32    36    37   ar
    33    37    38   ar
    34     6     7   ar
    35     7     8    2
    36    23    17   ar
    37     7     1   ar
    38    14     9   ar
    39    38    33   ar
    40    30    31    1
    41    30    32    1
@<TRIPOS>MOLECULE
*****
 38 41 0 0 0
SMALL
GASTEIGER

@<TRIPOS>ATOM
      1 N          61.5850   89.2052   11.4635 N.ar    1  UNL1       -0.2754
      2 C          62.2671   87.8725   11.5576 C.ar    1  UNL1        0.0848
      3 C          61.8440   86.7483   10.6591 C.ar    1  UNL1        0.0744
      4 C          60.7388   86.9568    9.6665 C.ar    1  UNL1        0.2657
      5 O          60.3157   85.8327    8.7681 O.2     1  UNL1       -0.2668
      6 N          60.0568   88.2895    9.5725 N.ar    1  UNL1       -0.2470
      7 C          60.4798   89.4136   10.4709 C.ar    1  UNL1        0.3341
      8 O          59.7977   90.7463   10.3768 O.2     1  UNL1       -0.2462
      9 C          62.5260   85.4157   10.7532 C.ar    1  UNL1        0.0166
     10 C          62.4779   84.6374   12.0345 C.ar    1  UNL1        0.0010
     11 C          63.1599   83.3047   12.1286 C.ar    1  UNL1        0.0001
     12 C          63.8902   82.7504   10.9413 C.ar    1  UNL1        0.0009
     13 C          63.9383   83.5288    9.6600 C.ar    1  UNL1        0.0114
     14 C          63.2563   84.8614    9.5659 C.ar    1  UNL1        0.0578
     15 CL         63.3044   85.6398    8.2846 Cl      1  UNL1       -0.0822
     16 C          62.0081   90.3293   12.3619 C.3     1  UNL1        0.1408
     17 C          64.3356   90.8635   13.3855 C.ar    1  UNL1        0.1057
     18 C          65.7084   91.4532   13.2533 C.ar    1  UNL1        0.0182
     19 C          66.1268   92.0983   11.9654 C.ar    1  UNL1        0.0036
     20 C          65.1722   92.1538   10.8097 C.ar    1  UNL1        0.0295
     21 C          63.7993   91.5642   10.9418 C.ar    1  UNL1        0.1392
     22 F          62.8448   91.6197    9.7861 F       1  UNL1       -0.2044
     23 C          63.3810   90.9190   12.2297 C.ar    1  UNL1        0.0451
     24 C          63.4988   89.5732   15.9613 C.3     1  UNL1        0.1816
     25 S          63.9172   90.2183   14.6734 S.O2    1  UNL1        0.0103
     26 O          64.3187   88.8781   14.1326 O.2     1  UNL1       -0.1686
     27 O          63.5156   91.5585   15.2143 O.2     1  UNL1       -0.1686
     28 C          58.9515   88.4980    8.5799 C.3     1  UNL1        0.1334
     29 C          59.2349   88.3996    7.1102 C.3     1  UNL1        0.0968
     30 N          59.5768   87.0729    6.4995 N.3     1  UNL1       -0.3172
     31 H          59.7376   87.1904    5.4991 H       1  UNL1        0.1192
     32 H          58.8050   86.4222    6.6457 H       1  UNL1        0.1192
     33 C          59.1764   89.6279    6.2513 C.ar    1  UNL1       -0.0063
     34 C          57.8552   90.2730    5.9541 C.ar    1  UNL1       -0.0029
     35 C          57.7968   91.5013    5.0951 C.ar    1  UNL1       -0.0003
     36 C          59.0594   92.0845    4.5333 C.ar    1  UNL1       -0.0000
     37 C          60.3806   91.4394    4.8306 C.ar    1  UNL1       -0.0003
     38 C          60.4391   90.2111    5.6895 C.ar    1  UNL1       -0.0029
@<TRIPOS>BOND
     1    24    25    1
     2    25    26    2
     3    25    27    2
     4    25    17    1
     5    17    18   ar
     6    18    19   ar
     7    19    20   ar
     8    20    21   ar
     9    21    22    1
    10    21    23   ar
    11    23    16    1
    12    16     1    1
    13     1     2   ar
    14     2     3   ar
    15     3     9    1
    16     9    10   ar
    17    10    11   ar
    18    11    12   ar
    19    12    13   ar
    20    13    14   ar
    21    14    15    1
    22     3     4   ar
    23     4     5    2
    24     4     6   ar
    25     6    28    1
    26    28    29    1
    27    29    30    1
    28    29    33    1
    29    33    34   ar
    30    34    35   ar
    31    35    36   ar
    32    36    37   ar
    33    37    38   ar
    34     6     7   ar
    35     7     8    2
    36    23    17   ar
    37     7     1   ar
    38    14     9   ar
    39    38    33   ar
    40    30    31    1
    41    30    32    1
@<TRIPOS>MOLECULE
*****
 38 41 0 0 0
SMALL
GASTEIGER

@<TRIPOS>ATOM
      1 N          63.6248   89.7785   12.9392 N.ar    1  UNL1       -0.2754
      2 C          62.7889   89.3663   11.7639 C.ar    1  UNL1        0.0848
      3 C          62.5000   87.9145   11.5213 C.ar    1  UNL1        0.0744
      4 C          63.0470   86.8749   12.4542 C.ar    1  UNL1        0.2657
      5 O          62.7581   85.4231   12.2116 O.2     1  UNL1       -0.2668
      6 N          63.8829   87.2872   13.6295 N.ar    1  UNL1       -0.2470
      7 C          64.1718   88.7390   13.8720 C.ar    1  UNL1        0.3341
      8 O          65.0077   89.1512   15.0474 O.2     1  UNL1       -0.2462
      9 C          61.6642   87.5023   10.3460 C.ar    1  UNL1        0.0166
     10 C          62.2732   86.6932    9.2396 C.ar    1  UNL1        0.0010
     11 C          61.4373   86.2809    8.0642 C.ar    1  UNL1        0.0001
     12 C          59.9924   86.6778    7.9954 C.ar    1  UNL1        0.0009
     13 C          59.3834   87.4869    9.1019 C.ar    1  UNL1        0.0114
     14 C          60.2193   87.8992   10.2772 C.ar    1  UNL1        0.0578
     15 CL         59.6102   88.7083   11.3837 Cl      1  UNL1       -0.0822
     16 C          63.9137   91.2303   13.1818 C.3     1  UNL1        0.1408
     17 C          66.1295   92.5590   12.9077 C.ar    1  UNL1        0.1057
     18 C          67.1094   93.2848   12.0343 C.ar    1  UNL1        0.0182
     19 C          66.8536   93.4077   10.5615 C.ar    1  UNL1        0.0036
     20 C          65.6177   92.8049    9.9620 C.ar    1  UNL1        0.0295
     21 C          64.6378   92.0791   10.8354 C.ar    1  UNL1        0.1392
     22 F          63.4020   91.4763   10.2360 F       1  UNL1       -0.2044
     23 C          64.8937   91.9562   12.3083 C.ar    1  UNL1        0.0451
     24 C          66.6412   92.3130   15.8535 C.3     1  UNL1        0.1816
     25 S          66.3854   92.4360   14.3807 S.O2    1  UNL1        0.0103
     26 O          67.0127   91.0916   14.1595 O.2     1  UNL1       -0.1686
     27 O          65.7580   93.7804   14.6019 O.2     1  UNL1       -0.1686
     28 C          64.4299   86.2476   14.5623 C.3     1  UNL1        0.1334
     29 C          63.5080   85.2472   15.1940 C.3     1  UNL1        0.0968
     30 N          62.7515   85.6058   16.4387 N.3     1  UNL1       -0.3172
     31 H          62.1775   84.8137   16.7278 H       1  UNL1        0.1192
     32 H          62.1522   86.4099   16.2525 H       1  UNL1        0.1192
     33 C          63.3426   83.8882   14.5812 C.ar    1  UNL1       -0.0063
     34 C          64.4240   83.3219   13.7095 C.ar    1  UNL1       -0.0029
     35 C          64.2585   81.9627   13.0966 C.ar    1  UNL1       -0.0003
     36 C          63.0117   81.1700   13.3555 C.ar    1  UNL1       -0.0000
     37 C          61.9303   81.7363   14.2272 C.ar    1  UNL1       -0.0003
     38 C          62.0957   83.0954   14.8400 C.ar    1  UNL1       -0.0029
@<TRIPOS>BOND
     1    24    25    1
     2    25    26    2
     3    25    27    2
     4    25    17    1
     5    17    18   ar
     6    18    19   ar
     7    19    20   ar
     8    20    21   ar
     9    21    22    1
    10    21    23   ar
    11    23    16    1
    12    16     1    1
    13     1     2   ar
    14     2     3   ar
    15     3     9    1
    16     9    10   ar
    17    10    11   ar
    18    11    12   ar
    19    12    13   ar
    20    13    14   ar
    21    14    15    1
    22     3     4   ar
    23     4     5    2
    24     4     6   ar
    25     6    28    1
    26    28    29    1
    27    29    30    1
    28    29    33    1
    29    33    34   ar
    30    34    35   ar
    31    35    36   ar
    32    36    37   ar
    33    37    38   ar
    34     6     7   ar
    35     7     8    2
    36    23    17   ar
    37     7     1   ar
    38    14     9   ar
    39    38    33   ar
    40    30    31    1
    41    30    32    1
@<TRIPOS>MOLECULE
*****
 38 41 0 0 0
SMALL
GASTEIGER

@<TRIPOS>ATOM
      1 N          63.7317   85.9366   12.9647 N.ar    1  UNL1       -0.2754
      2 C          64.2524   87.1436   13.6872 C.ar    1  UNL1        0.0848
      3 C          63.5826   88.4734   13.5055 C.ar    1  UNL1        0.0744
      4 C          62.3921   88.5962   12.6012 C.ar    1  UNL1        0.2657
      5 O          61.7223   89.9259   12.4195 O.2     1  UNL1       -0.2668
      6 N          61.8714   87.3892   11.8787 N.ar    1  UNL1       -0.2470
      7 C          62.5412   86.0594   12.0604 C.ar    1  UNL1        0.3341
      8 O          62.0205   84.8524   11.3378 O.2     1  UNL1       -0.2462
      9 C          64.1033   89.6804   14.2280 C.ar    1  UNL1        0.0166
     10 C          65.0644   90.6070   13.5443 C.ar    1  UNL1        0.0010
     11 C          65.5851   91.8141   14.2668 C.ar    1  UNL1        0.0001
     12 C          65.1446   92.0944   15.6730 C.ar    1  UNL1        0.0009
     13 C          64.1834   91.1677   16.3567 C.ar    1  UNL1        0.0114
     14 C          63.6628   89.9607   15.6342 C.ar    1  UNL1        0.0578
     15 CL         62.7016   89.0340   16.3179 Cl      1  UNL1       -0.0822
     16 C          64.4015   84.6068   13.1464 C.3     1  UNL1        0.1408
     17 C          62.6970   83.1052   14.4075 C.ar    1  UNL1        0.1057
     18 C          61.8728   81.8541   14.4801 C.ar    1  UNL1        0.0182
     19 C          61.9288   80.8533   13.3643 C.ar    1  UNL1        0.0036
     20 C          62.8091   81.1036   12.1758 C.ar    1  UNL1        0.0295
     21 C          63.6333   82.3547   12.1031 C.ar    1  UNL1        0.1392
     22 F          64.5135   82.6051   10.9146 F       1  UNL1       -0.2044
     23 C          63.5772   83.3555   13.2190 C.ar    1  UNL1        0.0451
     24 C          62.5850   85.1070   16.6392 C.3     1  UNL1        0.1816
     25 S          62.6410   84.1061   15.5234 S.O2    1  UNL1        0.0103
     26 O          63.8968   83.5278   16.1052 O.2     1  UNL1       -0.1686
     27 O          61.3852   84.6844   14.9416 O.2     1  UNL1       -0.1686
     28 C          60.6809   87.5119   10.9744 C.3     1  UNL1        0.1334
     29 C          60.8735   87.8144    9.5179 C.3     1  UNL1        0.0968
     30 N          60.6955   89.2155    9.0129 N.3     1  UNL1       -0.3172
     31 H          60.8636   89.2384    8.0071 H       1  UNL1        0.1192
     32 H          61.3580   89.8329    9.4824 H       1  UNL1        0.1192
     33 C          61.2439   86.7156    8.5664 C.ar    1  UNL1       -0.0063
     34 C          60.2098   86.1424    7.6433 C.ar    1  UNL1       -0.0029
     35 C          60.5803   85.0435    6.6918 C.ar    1  UNL1       -0.0003
     36 C          61.9849   84.5180    6.6633 C.ar    1  UNL1       -0.0000
     37 C          63.0190   85.0912    7.5864 C.ar    1  UNL1       -0.0003
     38 C          62.6486   86.1899    8.5379 C.ar    1  UNL1       -0.0029
@<TRIPOS>BOND
     1    24    25    1
     2    25    26    2
     3    25    27    2
     4    25    17    1
     5    17    18   ar
     6    18    19   ar
     7    19    20   ar
     8    20    21   ar
     9    21    22    1
    10    21    23   ar
    11    23    16    1
    12    16     1    1
    13     1     2   ar
    14     2     3   ar
    15     3     9    1
    16     9    10   ar
    17    10    11   ar
    18    11    12   ar
    19    12    13   ar
    20    13    14   ar
    21    14    15    1
    22     3     4   ar
    23     4     5    2
    24     4     6   ar
    25     6    28    1
    26    28    29    1
    27    29    30    1
    28    29    33    1
    29    33    34   ar
    30    34    35   ar
    31    35    36   ar
    32    36    37   ar
    33    37    38   ar
    34     6     7   ar
    35     7     8    2
    36    23    17   ar
    37     7     1   ar
    38    14     9   ar
    39    38    33   ar
    40    30    31    1
    41    30    32    1
@<TRIPOS>MOLECULE
*****
 38 41 0 0 0
SMALL
GASTEIGER

@<TRIPOS>ATOM
      1 N          63.6808   89.1194   12.5620 N.ar    1  UNL1       -0.2754
      2 C          62.8659   88.7410   11.3608 C.ar    1  UNL1        0.0848
      3 C          62.3593   87.3372   11.2101 C.ar    1  UNL1        0.0744
      4 C          62.6676   86.3118   12.2607 C.ar    1  UNL1        0.2657
      5 O          62.1609   84.9080   12.1101 O.2     1  UNL1       -0.2668
      6 N          63.4823   86.6903   13.4619 N.ar    1  UNL1       -0.2470
      7 C          63.9889   88.0941   13.6126 C.ar    1  UNL1        0.3341
      8 O          64.8038   88.4725   14.8138 O.2     1  UNL1       -0.2462
      9 C          61.5445   86.9588   10.0090 C.ar    1  UNL1        0.0166
     10 C          62.1430   86.0948    8.9387 C.ar    1  UNL1        0.0010
     11 C          61.3282   85.7163    7.7375 C.ar    1  UNL1        0.0001
     12 C          59.9150   86.2018    7.6065 C.ar    1  UNL1        0.0009
     13 C          59.3166   87.0658    8.6768 C.ar    1  UNL1        0.0114
     14 C          60.1313   87.4443    9.8780 C.ar    1  UNL1        0.0578
     15 CL         59.5329   88.3082   10.9482 Cl      1  UNL1       -0.0822
     16 C          64.1874   90.5232   12.7127 C.3     1  UNL1        0.1408
     17 C          65.6668   91.9239   14.3250 C.ar    1  UNL1        0.1057
     18 C          65.9283   92.4842   15.6916 C.ar    1  UNL1        0.0182
     19 C          64.9717   92.2043   16.8125 C.ar    1  UNL1        0.0036
     20 C          63.7537   91.3640   16.5669 C.ar    1  UNL1        0.0295
     21 C          63.4922   90.8037   15.2003 C.ar    1  UNL1        0.1392
     22 F          62.2742   89.9634   14.9547 F       1  UNL1       -0.2044
     23 C          64.4488   91.0836   14.0794 C.ar    1  UNL1        0.0451
     24 C          67.5799   92.4837   12.0830 C.3     1  UNL1        0.1816
     25 S          66.6234   92.2038   13.2040 S.O2    1  UNL1        0.0103
     26 O          67.6237   91.2747   13.8254 O.2     1  UNL1       -0.1686
     27 O          65.6232   93.1329   12.5825 O.2     1  UNL1       -0.1686
     28 C          63.7906   85.6649   14.5125 C.3     1  UNL1        0.1334
     29 C          64.5616   84.4299   14.1517 C.3     1  UNL1        0.0968
     30 N          66.0613   84.4570   14.1459 N.3     1  UNL1       -0.3172
     31 H          66.4169   83.5388   13.8797 H       1  UNL1        0.1192
     32 H          66.4007   84.6960   15.0776 H       1  UNL1        0.1192
     33 C          63.8329   83.1677   13.7969 C.ar    1  UNL1       -0.0063
     34 C          62.6593   82.7230   14.6183 C.ar    1  UNL1       -0.0029
     35 C          61.9306   81.4608   14.2634 C.ar    1  UNL1       -0.0003
     36 C          62.3755   80.6434   13.0870 C.ar    1  UNL1       -0.0000
     37 C          63.5491   81.0882   12.2655 C.ar    1  UNL1       -0.0003
     38 C          64.2778   82.3503   12.6204 C.ar    1  UNL1       -0.0029
@<TRIPOS>BOND
     1    24    25    1
     2    25    26    2
     3    25    27    2
     4    25    17    1
     5    17    18   ar
     6    18    19   ar
     7    19    20   ar
     8    20    21   ar
     9    21    22    1
    10    21    23   ar
    11    23    16    1
    12    16     1    1
    13     1     2   ar
    14     2     3   ar
    15     3     9    1
    16     9    10   ar
    17    10    11   ar
    18    11    12   ar
    19    12    13   ar
    20    13    14   ar
    21    14    15    1
    22     3     4   ar
    23     4     5    2
    24     4     6   ar
    25     6    28    1
    26    28    29    1
    27    29    30    1
    28    29    33    1
    29    33    34   ar
    30    34    35   ar
    31    35    36   ar
    32    36    37   ar
    33    37    38   ar
    34     6     7   ar
    35     7     8    2
    36    23    17   ar
    37     7     1   ar
    38    14     9   ar
    39    38    33   ar
    40    30    31    1
    41    30    32    1
@<TRIPOS>MOLECULE
*****
 38 41 0 0 0
SMALL
GASTEIGER

@<TRIPOS>ATOM
      1 N          63.4356   85.8964   12.8546 N.ar    1  UNL1       -0.2754
      2 C          62.5630   85.7177   11.6477 C.ar    1  UNL1        0.0848
      3 C          62.0752   86.9172   10.8906 C.ar    1  UNL1        0.0744
      4 C          62.4600   88.2955   11.3405 C.ar    1  UNL1        0.2657
      5 O          61.9722   89.4950   10.5835 O.2     1  UNL1       -0.2668
      6 N          63.3326   88.4742   12.5474 N.ar    1  UNL1       -0.2470
      7 C          63.8204   87.2747   13.3045 C.ar    1  UNL1        0.3341
      8 O          64.6930   87.4534   14.5114 O.2     1  UNL1       -0.2462
      9 C          61.2026   86.7385    9.6838 C.ar    1  UNL1        0.0166
     10 C          61.6951   85.9392    8.5139 C.ar    1  UNL1        0.0010
     11 C          60.8225   85.7605    7.3070 C.ar    1  UNL1        0.0001
     12 C          59.4574   86.3811    7.2699 C.ar    1  UNL1        0.0009
     13 C          58.9649   87.1804    8.4398 C.ar    1  UNL1        0.0114
     14 C          59.8375   87.3591    9.6467 C.ar    1  UNL1        0.0578
     15 CL         59.3450   88.1583   10.8165 Cl      1  UNL1       -0.0822
     16 C          63.9235   84.6969   13.6117 C.3     1  UNL1        0.1408
     17 C          63.1316   82.4961   12.4805 C.ar    1  UNL1        0.1057
     18 C          62.3079   81.2429   12.5117 C.ar    1  UNL1        0.0182
     19 C          61.4522   80.9374   13.7051 C.ar    1  UNL1        0.0036
     20 C          61.4202   81.8850   14.8674 C.ar    1  UNL1        0.0295
     21 C          62.2440   83.1381   14.8363 C.ar    1  UNL1        0.1392
     22 F          62.2120   84.0857   15.9986 F       1  UNL1       -0.2044
     23 C          63.0997   83.4437   13.6429 C.ar    1  UNL1        0.0451
     24 C          64.8431   83.1073   10.0936 C.3     1  UNL1        0.1816
     25 S          63.9874   82.8017   11.2871 S.O2    1  UNL1        0.0103
     26 O          65.1930   82.2948   12.0216 O.2     1  UNL1       -0.1686
     27 O          62.7819   83.3086   10.5525 O.2     1  UNL1       -0.1686
     28 C          63.7174   89.8525   12.9973 C.3     1  UNL1        0.1334
     29 C          63.7083   90.1946   14.4577 C.3     1  UNL1        0.0968
     30 N          62.6048   89.6897   15.3394 N.3     1  UNL1       -0.3172
     31 H          62.7564   90.0154   16.2940 H       1  UNL1        0.1192
     32 H          62.5979   88.6698   15.3252 H       1  UNL1        0.1192
     33 C          64.8026   91.0416   15.0364 C.ar    1  UNL1       -0.0063
     34 C          64.5503   91.8500   16.2744 C.ar    1  UNL1       -0.0029
     35 C          65.6447   92.6971   16.8531 C.ar    1  UNL1       -0.0003
     36 C          66.9914   92.7356   16.1937 C.ar    1  UNL1       -0.0000
     37 C          67.2438   91.9272   14.9557 C.ar    1  UNL1       -0.0003
     38 C          66.1494   91.0802   14.3770 C.ar    1  UNL1       -0.0029
@<TRIPOS>BOND
     1    24    25    1
     2    25    26    2
     3    25    27    2
     4    25    17    1
     5    17    18   ar
     6    18    19   ar
     7    19    20   ar
     8    20    21   ar
     9    21    22    1
    10    21    23   ar
    11    23    16    1
    12    16     1    1
    13     1     2   ar
    14     2     3   ar
    15     3     9    1
    16     9    10   ar
    17    10    11   ar
    18    11    12   ar
    19    12    13   ar
    20    13    14   ar
    21    14    15    1
    22     3     4   ar
    23     4     5    2
    24     4     6   ar
    25     6    28    1
    26    28    29    1
    27    29    30    1
    28    29    33    1
    29    33    34   ar
    30    34    35   ar
    31    35    36   ar
    32    36    37   ar
    33    37    38   ar
    34     6     7   ar
    35     7     8    2
    36    23    17   ar
    37     7     1   ar
    38    14     9   ar
    39    38    33   ar
    40    30    31    1
    41    30    32    1
@<TRIPOS>MOLECULE
*****
 38 41 0 0 0
SMALL
GASTEIGER

@<TRIPOS>ATOM
      1 N          63.2155   88.3192   12.9615 N.ar    1  UNL1       -0.2754
      2 C          62.7185   87.9440   11.5968 C.ar    1  UNL1        0.0848
      3 C          62.7043   86.5052   11.1731 C.ar    1  UNL1        0.0744
      4 C          63.1872   85.4414   12.1141 C.ar    1  UNL1        0.2657
      5 O          63.1731   84.0026   11.6905 O.2     1  UNL1       -0.2668
      6 N          63.6842   85.8166   13.4787 N.ar    1  UNL1       -0.2470
      7 C          63.6984   87.2555   13.9024 C.ar    1  UNL1        0.3341
      8 O          64.1954   87.6306   15.2671 O.2     1  UNL1       -0.2462
      9 C          62.2073   86.1300    9.8085 C.ar    1  UNL1        0.0166
     10 C          63.0962   85.3696    8.8695 C.ar    1  UNL1        0.0010
     11 C          62.5992   84.9944    7.5048 C.ar    1  UNL1        0.0001
     12 C          61.2133   85.3796    7.0792 C.ar    1  UNL1        0.0009
     13 C          60.3245   86.1400    8.0184 C.ar    1  UNL1        0.0114
     14 C          60.8215   86.5152    9.3830 C.ar    1  UNL1        0.0578
     15 CL         59.9327   87.2755   10.3220 Cl      1  UNL1       -0.0822
     16 C          63.2297   89.7580   13.3852 C.3     1  UNL1        0.1408
     17 C          63.6760   91.3203   11.3578 C.ar    1  UNL1        0.1057
     18 C          64.5560   92.3035   10.6444 C.ar    1  UNL1        0.0182
     19 C          65.8696   92.7077   11.2451 C.ar    1  UNL1        0.0036
     20 C          66.3034   92.1287   12.5591 C.ar    1  UNL1        0.0295
     21 C          65.4234   91.1455   13.2725 C.ar    1  UNL1        0.1392
     22 F          65.8571   90.5665   14.5865 F       1  UNL1       -0.2044
     23 C          64.1097   90.7413   12.6718 C.ar    1  UNL1        0.0451
     24 C          61.0486   90.5117   10.1565 C.3     1  UNL1        0.1816
     25 S          62.3623   90.9160   10.7571 S.O2    1  UNL1        0.0103
     26 O          61.6809   91.1853   12.0660 O.2     1  UNL1       -0.1686
     27 O          63.0436   90.6466    9.4483 O.2     1  UNL1       -0.1686
     28 C          64.1671   84.7529   14.4198 C.3     1  UNL1        0.1334
     29 C          63.1791   83.8851   15.1413 C.3     1  UNL1        0.0968
     30 N          62.5748   84.3506   16.4328 N.3     1  UNL1       -0.3172
     31 H          61.9301   83.6414   16.7817 H       1  UNL1        0.1192
     32 H          62.0690   85.2225   16.2768 H       1  UNL1        0.1192
     33 C          62.7955   82.5517   14.5714 C.ar    1  UNL1       -0.0063
     34 C          61.3521   82.1476   14.5146 C.ar    1  UNL1       -0.0029
     35 C          60.9684   80.8141   13.9446 C.ar    1  UNL1       -0.0003
     36 C          62.0282   79.8849   13.4314 C.ar    1  UNL1       -0.0000
     37 C          63.4716   80.2891   13.4882 C.ar    1  UNL1       -0.0003
     38 C          63.8553   81.6224   14.0581 C.ar    1  UNL1       -0.0029
@<TRIPOS>BOND
     1    24    25    1
     2    25    26    2
     3    25    27    2
     4    25    17    1
     5    17    18   ar
     6    18    19   ar
     7    19    20   ar
     8    20    21   ar
     9    21    22    1
    10    21    23   ar
    11    23    16    1
    12    16     1    1
    13     1     2   ar
    14     2     3   ar
    15     3     9    1
    16     9    10   ar
    17    10    11   ar
    18    11    12   ar
    19    12    13   ar
    20    13    14   ar
    21    14    15    1
    22     3     4   ar
    23     4     5    2
    24     4     6   ar
    25     6    28    1
    26    28    29    1
    27    29    30    1
    28    29    33    1
    29    33    34   ar
    30    34    35   ar
    31    35    36   ar
    32    36    37   ar
    33    37    38   ar
    34     6     7   ar
    35     7     8    2
    36    23    17   ar
    37     7     1   ar
    38    14     9   ar
    39    38    33   ar
    40    30    31    1
    41    30    32    1
@<TRIPOS>MOLECULE
*****
 38 41 0 0 0
SMALL
GASTEIGER

@<TRIPOS>ATOM
      1 N          63.6238   86.2807   13.0045 N.ar    1  UNL1       -0.2754
      2 C          64.2394   87.4724   13.6760 C.ar    1  UNL1        0.0848
      3 C          63.6585   88.8384   13.4596 C.ar    1  UNL1        0.0744
      4 C          62.4620   89.0125   12.5718 C.ar    1  UNL1        0.2657
      5 O          61.8812   90.3785   12.3555 O.2     1  UNL1       -0.2668
      6 N          61.8465   87.8208   11.9004 N.ar    1  UNL1       -0.2470
      7 C          62.4274   86.4549   12.1167 C.ar    1  UNL1        0.3341
      8 O          61.8118   85.2631   11.4452 O.2     1  UNL1       -0.2462
      9 C          64.2741   90.0301   14.1311 C.ar    1  UNL1        0.0166
     10 C          65.2423   90.8963   13.3813 C.ar    1  UNL1        0.0010
     11 C          65.8579   92.0881   14.0528 C.ar    1  UNL1        0.0001
     12 C          65.5052   92.4136   15.4739 C.ar    1  UNL1        0.0009
     13 C          64.5369   91.5473   16.2237 C.ar    1  UNL1        0.0114
     14 C          63.9214   90.3555   15.5522 C.ar    1  UNL1        0.0578
     15 CL         62.9532   89.4893   16.3019 Cl      1  UNL1       -0.0822
     16 C          64.2047   84.9147   13.2208 C.3     1  UNL1        0.1408
     17 C          63.1877   82.6046   12.6051 C.ar    1  UNL1        0.1057
     18 C          62.2882   81.4511   12.9373 C.ar    1  UNL1        0.0182
     19 C          61.5062   81.4542   14.2172 C.ar    1  UNL1        0.0036
     20 C          61.6236   82.6108   15.1651 C.ar    1  UNL1        0.0295
     21 C          62.5231   83.7643   14.8330 C.ar    1  UNL1        0.1392
     22 F          62.6405   84.9210   15.7808 F       1  UNL1       -0.2044
     23 C          63.3051   83.7612   13.5530 C.ar    1  UNL1        0.0451
     24 C          64.7518   82.5984   10.0451 C.3     1  UNL1        0.1816
     25 S          63.9698   82.6015   11.3251 S.O2    1  UNL1        0.0103
     26 O          65.1841   82.1291   12.0682 O.2     1  UNL1       -0.1686
     27 O          62.7554   83.0739   10.5821 O.2     1  UNL1       -0.1686
     28 C          60.6500   87.9950   11.0125 C.3     1  UNL1        0.1334
     29 C          60.8328   88.1793    9.5352 C.3     1  UNL1        0.0968
     30 N          60.6636   89.5379    8.9223 N.3     1  UNL1       -0.3172
     31 H          60.8232   89.4794    7.9165 H       1  UNL1        0.1192
     32 H          61.3358   90.1838    9.3362 H       1  UNL1        0.1192
     33 C          61.1848   87.0051    8.6708 C.ar    1  UNL1       -0.0063
     34 C          62.5749   86.4422    8.7001 C.ar    1  UNL1       -0.0029
     35 C          62.9268   85.2679    7.8356 C.ar    1  UNL1       -0.0003
     36 C          61.8888   84.6566    6.9419 C.ar    1  UNL1       -0.0000
     37 C          60.4987   85.2195    6.9127 C.ar    1  UNL1       -0.0003
     38 C          60.1467   86.3937    7.7771 C.ar    1  UNL1       -0.0029
@<TRIPOS>BOND
     1    24    25    1
     2    25    26    2
     3    25    27    2
     4    25    17    1
     5    17    18   ar
     6    18    19   ar
     7    19    20   ar
     8    20    21   ar
     9    21    22    1
    10    21    23   ar
    11    23    16    1
    12    16     1    1
    13     1     2   ar
    14     2     3   ar
    15     3     9    1
    16     9    10   ar
    17    10    11   ar
    18    11    12   ar
    19    12    13   ar
    20    13    14   ar
    21    14    15    1
    22     3     4   ar
    23     4     5    2
    24     4     6   ar
    25     6    28    1
    26    28    29    1
    27    29    30    1
    28    29    33    1
    29    33    34   ar
    30    34    35   ar
    31    35    36   ar
    32    36    37   ar
    33    37    38   ar
    34     6     7   ar
    35     7     8    2
    36    23    17   ar
    37     7     1   ar
    38    14     9   ar
    39    38    33   ar
    40    30    31    1
    41    30    32    1
