@<TRIPOS>MOLECULE
*****
 20 21 0 0 0
SMALL
GASTEIGER

@<TRIPOS>ATOM
      1 C          66.3782   93.6470   11.1176 C.2     1  UNL1        0.1535
      2 N          65.2531   92.8920   10.4740 N.2     1  UNL1       -0.2470
      3 C          64.6498   91.9885   11.5082 C.3     1  UNL1        0.1720
      4 C          63.5126   91.0122   11.4476 C.3     1  UNL1        0.1656
      5 O          62.7604   90.8156   10.1648 O.3     1  UNL1       -0.3798
      6 C          63.1276   90.2323   12.6698 C.3     1  UNL1        0.1735
      7 C          63.8798   90.4289   13.9526 C.3     1  UNL1        0.1749
      8 O          65.0170   91.4052   14.0132 O.3     1  UNL1       -0.3402
      9 C          65.4019   92.1850   12.7910 C.3     1  UNL1        0.1938
     10 S          66.4702   93.2100   12.5496 S.3     1  UNL1       -0.0497
     11 H          62.0625   90.1551   10.2971 H       1  UNL1        0.2105
     12 C          63.4948   89.6491   15.1747 C.3     1  UNL1        0.1693
     13 O          62.0602   89.5958   15.6093 O.3     1  UNL1       -0.3794
     14 H          61.7724   90.4805   15.8839 H       1  UNL1        0.2105
     15 N          67.2570   94.6609   10.4470 N.pl3   1  UNL1       -0.3135
     16 H          67.3032   95.5802   10.7964 H       1  UNL1        0.1487
     17 C          68.5698   92.8689    9.0997 C.3     1  UNL1        0.0230
     18 C          68.0654   94.2742    9.2442 C.3     1  UNL1        0.0887
     19 O          61.9905   89.2560   12.6091 O.3     1  UNL1       -0.3485
     20 C          60.6268   89.7182   12.1886 C.3     1  UNL1        0.1742
@<TRIPOS>BOND
     1    17    18    1
     2    18    15    1
     3    15     1    1
     4     1     2    2
     5     3     2    1
     6     3     4    1
     7     4     5    1
     8     4     6    1
     9     6    19    1
    10    19    20    1
    11     6     7    1
    12     7    12    1
    13    12    13    1
    14     7     8    1
    15     9     8    1
    16     9    10    1
    17    10     1    1
    18     9     3    1
    19    15    16    1
    20     5    11    1
    21    13    14    1
@<TRIPOS>MOLECULE
*****
 20 21 0 0 0
SMALL
GASTEIGER

@<TRIPOS>ATOM
      1 C          61.5581   89.4422   11.6292 C.2     1  UNL1        0.1535
      2 N          62.3717   89.6806   12.8666 N.2     1  UNL1       -0.2470
      3 C          63.4540   90.6624   12.5278 C.3     1  UNL1        0.1720
      4 C          64.5525   91.2685   13.3498 C.3     1  UNL1        0.1656
      5 O          64.6973   90.9000   14.7967 O.3     1  UNL1       -0.3798
      6 C          65.5064   92.2431   12.7250 C.3     1  UNL1        0.1735
      7 C          65.3617   92.6115   11.2782 C.3     1  UNL1        0.1749
      8 O          64.2630   92.0053   10.4562 O.3     1  UNL1       -0.3402
      9 C          63.3092   91.0308   11.0810 C.3     1  UNL1        0.1938
     10 S          62.1375   90.2767   10.5256 S.3     1  UNL1       -0.0497
     11 H          65.4509   91.3770   15.1779 H       1  UNL1        0.2105
     12 C          66.3155   93.5860   10.6534 C.3     1  UNL1        0.1693
     13 O          66.8026   94.7673   11.4390 O.3     1  UNL1       -0.3794
     14 H          66.0591   95.3626   11.6222 H       1  UNL1        0.2105
     15 N          60.3731   88.5296   11.5154 N.pl3   1  UNL1       -0.3135
     16 H          59.5591   88.7122   12.0381 H       1  UNL1        0.1487
     17 C          61.3562   86.2012   10.9136 C.3     1  UNL1        0.0230
     18 C          60.4283   87.3387   10.6051 C.3     1  UNL1        0.0887
     19 O          66.6050   92.8492   13.5470 O.3     1  UNL1       -0.3485
     20 C          67.8323   92.0480   13.8661 C.3     1  UNL1        0.1742
@<TRIPOS>BOND
     1    17    18    1
     2    18    15    1
     3    15     1    1
     4     1     2    2
     5     3     2    1
     6     3     4    1
     7     4     5    1
     8     4     6    1
     9     6    19    1
    10    19    20    1
    11     6     7    1
    12     7    12    1
    13    12    13    1
    14     7     8    1
    15     9     8    1
    16     9    10    1
    17    10     1    1
    18     9     3    1
    19    15    16    1
    20     5    11    1
    21    13    14    1
@<TRIPOS>MOLECULE
*****
 20 21 0 0 0
SMALL
GASTEIGER

@<TRIPOS>ATOM
      1 C          63.7725   83.4947   11.7657 C.2     1  UNL1        0.1535
      2 N          63.5186   83.8194   10.3234 N.2     1  UNL1       -0.2470
      3 C          62.5902   84.9964   10.2697 C.3     1  UNL1        0.1720
      4 C          61.9947   85.7534    9.1198 C.3     1  UNL1        0.1656
      5 O          62.3146   85.3507    7.7107 O.3     1  UNL1       -0.3798
      6 C          61.0794   86.9132    9.3790 C.3     1  UNL1        0.1735
      7 C          60.7595   87.3159   10.7881 C.3     1  UNL1        0.1749
      8 O          61.3550   86.5588   11.9380 O.3     1  UNL1       -0.3402
      9 C          62.2703   85.3991   11.6788 C.3     1  UNL1        0.1938
     10 S          63.0010   84.4710   12.6033 S.3     1  UNL1       -0.0497
     11 H          61.8517   85.9386    7.0935 H       1  UNL1        0.2105
     12 C          59.8442   88.4756   11.0472 C.3     1  UNL1        0.1693
     13 O          59.1156   88.5784   12.3543 O.3     1  UNL1       -0.3794
     14 H          58.4795   87.8499   12.4281 H       1  UNL1        0.2105
     15 N          64.6448   82.3881   12.2799 N.pl3   1  UNL1       -0.3135
     16 H          65.5866   82.3324   11.9985 H       1  UNL1        0.1487
     17 C          62.8182   80.6383   12.8731 C.3     1  UNL1        0.0230
     18 C          64.0822   81.3663   13.2230 C.3     1  UNL1        0.0887
     19 O          60.4839   87.6702    8.2291 O.3     1  UNL1       -0.3485
     20 C          59.1648   87.2461    7.6546 C.3     1  UNL1        0.1742
@<TRIPOS>BOND
     1    17    18    1
     2    18    15    1
     3    15     1    1
     4     1     2    2
     5     3     2    1
     6     3     4    1
     7     4     5    1
     8     4     6    1
     9     6    19    1
    10    19    20    1
    11     6     7    1
    12     7    12    1
    13    12    13    1
    14     7     8    1
    15     9     8    1
    16     9    10    1
    17    10     1    1
    18     9     3    1
    19    15    16    1
    20     5    11    1
    21    13    14    1
@<TRIPOS>MOLECULE
*****
 20 21 0 0 0
SMALL
GASTEIGER

@<TRIPOS>ATOM
      1 C          62.5550   89.6702   12.0342 C.2     1  UNL1        0.1535
      2 N          63.1735   90.6531   11.0849 N.2     1  UNL1       -0.2470
      3 C          64.1677   91.4747   11.8508 C.3     1  UNL1        0.1720
      4 C          65.0761   92.5941   11.4365 C.3     1  UNL1        0.1656
      5 O          65.0801   93.0694   10.0138 O.3     1  UNL1       -0.3798
      6 C          65.9805   93.2384   12.4450 C.3     1  UNL1        0.1735
      7 C          65.9765   92.7631   13.8678 C.3     1  UNL1        0.1749
      8 O          65.0680   91.6436   14.2820 O.3     1  UNL1       -0.3402
      9 C          64.1637   90.9995   13.2735 C.3     1  UNL1        0.1938
     10 S          63.1670   89.8842   13.3868 S.3     1  UNL1       -0.0497
     11 H          65.7191   93.7926    9.9163 H       1  UNL1        0.2105
     12 C          66.8809   93.4073   14.8762 C.3     1  UNL1        0.1693
     13 O          66.5673   93.3033   16.3394 O.3     1  UNL1       -0.3794
     14 H          65.7455   93.7826   16.5287 H       1  UNL1        0.2105
     15 N          61.5084   88.6519   11.6911 N.pl3   1  UNL1       -0.3135
     16 H          61.6903   87.6940   11.8270 H       1  UNL1        0.1487
     17 C          59.6137   90.4229   11.5361 C.3     1  UNL1        0.0230
     18 C          60.1845   89.0932   11.1410 C.3     1  UNL1        0.0887
     19 O          66.8890   94.3578   12.0308 O.3     1  UNL1       -0.3485
     20 C          66.3100   95.6400   11.5105 C.3     1  UNL1        0.1742
@<TRIPOS>BOND
     1    17    18    1
     2    18    15    1
     3    15     1    1
     4     1     2    2
     5     3     2    1
     6     3     4    1
     7     4     5    1
     8     4     6    1
     9     6    19    1
    10    19    20    1
    11     6     7    1
    12     7    12    1
    13    12    13    1
    14     7     8    1
    15     9     8    1
    16     9    10    1
    17    10     1    1
    18     9     3    1
    19    15    16    1
    20     5    11    1
    21    13    14    1
@<TRIPOS>MOLECULE
*****
 20 21 0 0 0
SMALL
GASTEIGER

@<TRIPOS>ATOM
      1 C          65.7197   92.6364   12.8420 C.2     1  UNL1        0.1535
      2 N          64.7655   91.8436   13.6852 N.2     1  UNL1       -0.2470
      3 C          63.7875   91.1694   12.7692 C.3     1  UNL1        0.1720
      4 C          62.6236   90.2617   13.0364 C.3     1  UNL1        0.1656
      5 O          62.2739   89.8855   14.4457 O.3     1  UNL1       -0.3798
      6 C          61.8095   89.7300   11.8942 C.3     1  UNL1        0.1735
      7 C          62.1592   90.1062   10.4848 C.3     1  UNL1        0.1749
      8 O          63.3231   91.0140   10.2177 O.3     1  UNL1       -0.3402
      9 C          64.1372   91.5456   11.3599 C.3     1  UNL1        0.1938
     10 S          65.3314   92.4522   11.4049 S.3     1  UNL1       -0.0497
     11 H          61.5023   89.2977   14.4414 H       1  UNL1        0.2105
     12 C          61.3451   89.5746    9.3427 C.3     1  UNL1        0.1693
     13 O          60.9320   88.1327    9.3233 O.3     1  UNL1       -0.3794
     14 H          61.7188   87.5721    9.2366 H       1  UNL1        0.2105
     15 N          66.8617   93.4674   13.3472 N.pl3   1  UNL1       -0.3135
     16 H          67.2592   94.1598   12.7712 H       1  UNL1        0.1487
     17 C          67.8565   91.8767   15.1444 C.3     1  UNL1        0.0230
     18 C          67.3980   93.2435   14.7300 C.3     1  UNL1        0.0887
     19 O          60.6456   88.8222   12.1613 O.3     1  UNL1       -0.3485
     20 C          59.2632   89.3913   12.2836 C.3     1  UNL1        0.1742
@<TRIPOS>BOND
     1    17    18    1
     2    18    15    1
     3    15     1    1
     4     1     2    2
     5     3     2    1
     6     3     4    1
     7     4     5    1
     8     4     6    1
     9     6    19    1
    10    19    20    1
    11     6     7    1
    12     7    12    1
    13    12    13    1
    14     7     8    1
    15     9     8    1
    16     9    10    1
    17    10     1    1
    18     9     3    1
    19    15    16    1
    20     5    11    1
    21    13    14    1
@<TRIPOS>MOLECULE
*****
 20 21 0 0 0
SMALL
GASTEIGER

@<TRIPOS>ATOM
      1 C          63.4293   83.3356   13.6787 C.2     1  UNL1        0.1535
      2 N          62.7027   83.7469   12.4326 N.2     1  UNL1       -0.2470
      3 C          62.7851   85.2404   12.3196 C.3     1  UNL1        0.1720
      4 C          62.2525   86.2004   11.2975 C.3     1  UNL1        0.1656
      5 O          61.4750   85.6887   10.1213 O.3     1  UNL1       -0.3798
      6 C          62.4976   87.6723   11.4517 C.3     1  UNL1        0.1735
      7 C          63.2751   88.1840   12.6279 C.3     1  UNL1        0.1749
      8 O          63.8077   87.2238   13.6500 O.3     1  UNL1       -0.3402
      9 C          63.5626   85.7521   13.4958 C.3     1  UNL1        0.1938
     10 S          63.9608   84.5748   14.3358 S.3     1  UNL1       -0.0497
     11 H          61.2062   86.4345    9.5622 H       1  UNL1        0.2105
     12 C          63.5201   89.6557   12.7822 C.3     1  UNL1        0.1693
     13 O          62.7664   90.4371   13.8172 O.3     1  UNL1       -0.3794
     14 H          61.8241   90.4526   13.5879 H       1  UNL1        0.2105
     15 N          63.5953   81.9315   14.1798 N.pl3   1  UNL1       -0.3135
     16 H          64.3278   81.7137   14.8005 H       1  UNL1        0.1487
     17 C          61.1912   80.9506   14.0913 C.3     1  UNL1        0.0230
     18 C          62.6454   80.8592   13.7351 C.3     1  UNL1        0.0887
     19 O          61.9650   88.6324   10.4297 O.3     1  UNL1       -0.3485
     20 C          60.5429   89.1024   10.5114 C.3     1  UNL1        0.1742
@<TRIPOS>BOND
     1    17    18    1
     2    18    15    1
     3    15     1    1
     4     1     2    2
     5     3     2    1
     6     3     4    1
     7     4     5    1
     8     4     6    1
     9     6    19    1
    10    19    20    1
    11     6     7    1
    12     7    12    1
    13    12    13    1
    14     7     8    1
    15     9     8    1
    16     9    10    1
    17    10     1    1
    18     9     3    1
    19    15    16    1
    20     5    11    1
    21    13    14    1
@<TRIPOS>MOLECULE
*****
 20 21 0 0 0
SMALL
GASTEIGER

@<TRIPOS>ATOM
      1 C          61.4031   89.4119   10.8139 C.2     1  UNL1        0.1535
      2 N          61.8562   89.1093   12.2114 N.2     1  UNL1       -0.2470
      3 C          63.0051   90.0183   12.5333 C.3     1  UNL1        0.1720
      4 C          63.8505   90.1705   13.7630 C.3     1  UNL1        0.1656
      5 O          63.5936   89.3060   14.9615 O.3     1  UNL1       -0.3798
      6 C          64.9529   91.1873   13.7941 C.3     1  UNL1        0.1735
      7 C          65.2099   92.0519   12.5955 C.3     1  UNL1        0.1749
      8 O          64.3644   91.8996   11.3658 O.3     1  UNL1       -0.3402
      9 C          63.2621   90.8828   11.3347 C.3     1  UNL1        0.1938
     10 S          62.2719   90.5081   10.2721 S.3     1  UNL1       -0.0497
     11 H          64.2238   89.5311   15.6637 H       1  UNL1        0.2105
     12 C          66.3122   93.0686   12.6266 C.3     1  UNL1        0.1693
     13 O          67.6090   92.7482   13.3090 O.3     1  UNL1       -0.3794
     14 H          67.4563   92.6451   14.2614 H       1  UNL1        0.2105
     15 N          60.2785   88.7370   10.0860 N.pl3   1  UNL1       -0.3135
     16 H          59.6606   88.1461   10.5741 H       1  UNL1        0.1487
     17 C          59.3578   87.9518    7.7869 C.3     1  UNL1        0.0230
     18 C          60.0954   88.9624    8.6144 C.3     1  UNL1        0.0887
     19 O          65.7983   91.3396   15.0238 O.3     1  UNL1       -0.3485
     20 C          65.3823   92.2901   16.1070 C.3     1  UNL1        0.1742
@<TRIPOS>BOND
     1    17    18    1
     2    18    15    1
     3    15     1    1
     4     1     2    2
     5     3     2    1
     6     3     4    1
     7     4     5    1
     8     4     6    1
     9     6    19    1
    10    19    20    1
    11     6     7    1
    12     7    12    1
    13    12    13    1
    14     7     8    1
    15     9     8    1
    16     9    10    1
    17    10     1    1
    18     9     3    1
    19    15    16    1
    20     5    11    1
    21    13    14    1
@<TRIPOS>MOLECULE
*****
 20 21 0 0 0
SMALL
GASTEIGER

@<TRIPOS>ATOM
      1 C          61.6770   86.7359    9.7134 C.2     1  UNL1        0.1535
      2 N          62.3938   85.4445    9.4515 N.2     1  UNL1       -0.2470
      3 C          62.6763   84.7947   10.7736 C.3     1  UNL1        0.1720
      4 C          63.3572   83.5078   11.1343 C.3     1  UNL1        0.1656
      5 O          63.8994   82.6180   10.0553 O.3     1  UNL1       -0.3798
      6 C          63.4960   83.1106   12.5742 C.3     1  UNL1        0.1735
      7 C          62.9538   84.0004   13.6532 C.3     1  UNL1        0.1749
      8 O          62.2729   85.2874   13.2924 O.3     1  UNL1       -0.3402
      9 C          62.1342   85.6845   11.8526 C.3     1  UNL1        0.1938
     10 S          61.5166   86.8842   11.1974 S.3     1  UNL1       -0.0497
     11 H          64.3047   81.8334   10.4565 H       1  UNL1        0.2105
     12 C          63.0926   83.6033   15.0930 C.3     1  UNL1        0.1693
     13 O          64.4117   83.1130   15.6119 O.3     1  UNL1       -0.3794
     14 H          64.6320   82.2685   15.1886 H       1  UNL1        0.2105
     15 N          61.2038   87.7082    8.6738 N.pl3   1  UNL1       -0.3135
     16 H          61.8524   88.2802    8.2033 H       1  UNL1        0.1487
     17 C          59.0287   86.6437    7.7330 C.3     1  UNL1        0.0230
     18 C          59.7424   87.8091    8.3512 C.3     1  UNL1        0.0887
     19 O          64.1769   81.8237   12.9349 O.3     1  UNL1       -0.3485
     20 C          63.3598   80.6108   13.2687 C.3     1  UNL1        0.1742
@<TRIPOS>BOND
     1    17    18    1
     2    18    15    1
     3    15     1    1
     4     1     2    2
     5     3     2    1
     6     3     4    1
     7     4     5    1
     8     4     6    1
     9     6    19    1
    10    19    20    1
    11     6     7    1
    12     7    12    1
    13    12    13    1
    14     7     8    1
    15     9     8    1
    16     9    10    1
    17    10     1    1
    18     9     3    1
    19    15    16    1
    20     5    11    1
    21    13    14    1
@<TRIPOS>MOLECULE
*****
 20 21 0 0 0
SMALL
GASTEIGER

@<TRIPOS>ATOM
      1 C          61.4079   88.5129    9.9743 C.2     1  UNL1        0.1535
      2 N          61.4409   87.0144   10.0331 N.2     1  UNL1       -0.2470
      3 C          62.2405   86.6152   11.2378 C.3     1  UNL1        0.1720
      4 C          62.6082   85.2736   11.7989 C.3     1  UNL1        0.1656
      5 O          62.1471   84.0218   11.1131 O.3     1  UNL1       -0.3798
      6 C          63.4372   85.1838   13.0459 C.3     1  UNL1        0.1735
      7 C          63.8983   86.4356   13.7317 C.3     1  UNL1        0.1749
      8 O          63.5306   87.7772   13.1705 O.3     1  UNL1       -0.3402
      9 C          62.7017   87.8670   11.9236 C.3     1  UNL1        0.1938
     10 S          62.1871   89.0398   11.1427 S.3     1  UNL1       -0.0497
     11 H          62.4689   83.2482   11.6017 H       1  UNL1        0.2105
     12 C          64.7272   86.3458   14.9786 C.3     1  UNL1        0.1693
     13 O          65.9332   85.4546   15.0149 O.3     1  UNL1       -0.3794
     14 H          65.6536   84.5289   14.9388 H       1  UNL1        0.2105
     15 N          60.7170   89.3393    8.9304 N.pl3   1  UNL1       -0.3135
     16 H          60.9165   90.3002    8.8517 H       1  UNL1        0.1487
     17 C          59.3567   89.3758    6.7172 C.3     1  UNL1        0.0230
     18 C          59.7221   88.7018    8.0065 C.3     1  UNL1        0.0887
     19 O          63.8049   83.8422   13.6070 O.3     1  UNL1       -0.3485
     20 C          62.8557   83.1259   14.5212 C.3     1  UNL1        0.1742
@<TRIPOS>BOND
     1    17    18    1
     2    18    15    1
     3    15     1    1
     4     1     2    2
     5     3     2    1
     6     3     4    1
     7     4     5    1
     8     4     6    1
     9     6    19    1
    10    19    20    1
    11     6     7    1
    12     7    12    1
    13    12    13    1
    14     7     8    1
    15     9     8    1
    16     9    10    1
    17    10     1    1
    18     9     3    1
    19    15    16    1
    20     5    11    1
    21    13    14    1
