@<TRIPOS>MOLECULE
*****
 15 15 0 0 0
SMALL
GASTEIGER

@<TRIPOS>ATOM
      1 C          62.3844   85.6087   10.0594 C.ar    1  UNL1       -0.0224
      2 C          62.3409   85.5908   11.5586 C.ar    1  UNL1       -0.0030
      3 C          63.0996   84.5434   12.3185 C.ar    1  UNL1        0.0143
      4 C          63.9017   83.5139   11.5792 C.ar    1  UNL1        0.0495
      5 C          63.9452   83.5318   10.0800 C.ar    1  UNL1        0.0143
      6 C          63.1866   84.5792    9.3200 C.ar    1  UNL1       -0.0030
      7 C          60.7344   86.2582    8.1606 C.3     1  UNL1        0.0047
      8 C          61.6258   86.6560    9.2994 C.3     1  UNL1        0.0224
      9 C          61.7586   88.1013    9.6783 C.3     1  UNL1        0.0047
     10 N          64.6604   82.4666   12.3391 N.pl3   1  UNL1       -0.2930
     11 H          65.6431   82.4366   12.2883 H       1  UNL1        0.1538
     12 C          63.9217   81.4649   13.1764 C.2     1  UNL1        0.2056
     13 N          62.8269   80.6400   12.5674 N.2     1  UNL1       -0.0679
     14 O          62.0883   79.6383   13.4047 O.2     1  UNL1       -0.4077
     15 H          61.4044   79.1231   13.0243 H       1  UNL1        0.3278
@<TRIPOS>BOND
     1     7     8    1
     2     8     9    1
     3     8     1    1
     4     1     2   ar
     5     2     3   ar
     6     3     4   ar
     7     4    10    1
     8    10    12    1
     9    12    13    2
    10    13    14    1
    11     4     5   ar
    12     5     6   ar
    13     6     1   ar
    14    10    11    1
    15    14    15    1
@<TRIPOS>MOLECULE
*****
 15 15 0 0 0
SMALL
GASTEIGER

@<TRIPOS>ATOM
      1 C          62.3036   85.6097   10.0285 C.ar    1  UNL1       -0.0224
      2 C          63.1618   84.6349    9.2781 C.ar    1  UNL1       -0.0030
      3 C          63.9469   83.5973   10.0245 C.ar    1  UNL1        0.0143
      4 C          63.8738   83.5346   11.5213 C.ar    1  UNL1        0.0495
      5 C          63.0156   84.5094   12.2718 C.ar    1  UNL1        0.0143
      6 C          62.2305   85.5469   11.5254 C.ar    1  UNL1       -0.0030
      7 C          60.5602   86.2319    8.2056 C.3     1  UNL1        0.0047
      8 C          61.5185   86.6472    9.2821 C.3     1  UNL1        0.0224
      9 C          61.6917   88.1001    9.6123 C.3     1  UNL1        0.0047
     10 N          64.6589   82.4970   12.2677 N.pl3   1  UNL1       -0.2930
     11 H          65.6411   82.4816   12.2024 H       1  UNL1        0.1538
     12 C          63.9475   81.4830   13.1136 C.2     1  UNL1        0.2056
     13 N          62.7604   80.7485   12.5647 N.2     1  UNL1       -0.0679
     14 O          62.0490   79.7344   13.4107 O.2     1  UNL1       -0.4077
     15 H          61.3074   79.2756   13.0679 H       1  UNL1        0.3278
@<TRIPOS>BOND
     1     7     8    1
     2     8     9    1
     3     8     1    1
     4     1     2   ar
     5     2     3   ar
     6     3     4   ar
     7     4    10    1
     8    10    12    1
     9    12    13    2
    10    13    14    1
    11     4     5   ar
    12     5     6   ar
    13     6     1   ar
    14    10    11    1
    15    14    15    1
@<TRIPOS>MOLECULE
*****
 15 15 0 0 0
SMALL
GASTEIGER

@<TRIPOS>ATOM
      1 C          62.7118   89.8898   10.9262 C.ar    1  UNL1       -0.0224
      2 C          63.0157   89.5476   12.3547 C.ar    1  UNL1       -0.0030
      3 C          63.9608   90.4024   13.1459 C.ar    1  UNL1        0.0143
      4 C          64.6019   91.5994   12.5088 C.ar    1  UNL1        0.0495
      5 C          64.2980   91.9416   11.0803 C.ar    1  UNL1        0.0143
      6 C          63.3529   91.0868   10.2891 C.ar    1  UNL1       -0.0030
      7 C          62.1465   87.6282    9.7794 C.3     1  UNL1        0.0047
      8 C          61.7667   89.0350   10.1349 C.3     1  UNL1        0.0224
      9 C          60.4418   89.5871    9.6992 C.3     1  UNL1        0.0047
     10 N          65.5470   92.4542   13.3001 N.pl3   1  UNL1       -0.2930
     11 H          65.2561   93.3355   13.6286 H       1  UNL1        0.1538
     12 C          66.9353   91.9664   13.5907 C.2     1  UNL1        0.2056
     13 N          68.0257   92.1607   12.5791 N.2     1  UNL1       -0.0679
     14 O          69.4141   91.6728   12.8698 O.2     1  UNL1       -0.4077
     15 H          70.0953   91.7942   12.2379 H       1  UNL1        0.3278
@<TRIPOS>BOND
     1     7     8    1
     2     8     9    1
     3     8     1    1
     4     1     2   ar
     5     2     3   ar
     6     3     4   ar
     7     4    10    1
     8    10    12    1
     9    12    13    2
    10    13    14    1
    11     4     5   ar
    12     5     6   ar
    13     6     1   ar
    14    10    11    1
    15    14    15    1
@<TRIPOS>MOLECULE
*****
 15 15 0 0 0
SMALL
GASTEIGER

@<TRIPOS>ATOM
      1 C          63.3702   83.6555   12.2205 C.ar    1  UNL1       -0.0224
      2 C          63.8037   83.2822   10.8339 C.ar    1  UNL1       -0.0030
      3 C          63.4012   84.1348    9.6673 C.ar    1  UNL1        0.0143
      4 C          62.5652   85.3606    9.8872 C.ar    1  UNL1        0.0495
      5 C          62.1317   85.7339   11.2738 C.ar    1  UNL1        0.0143
      6 C          62.5342   84.8813   12.4405 C.ar    1  UNL1       -0.0030
      7 C          64.2256   83.4453   14.6647 C.3     1  UNL1        0.0047
      8 C          63.7727   82.8029   13.3872 C.3     1  UNL1        0.0224
      9 C          63.7223   81.3079   13.2763 C.3     1  UNL1        0.0047
     10 N          62.1627   86.2132    8.7205 N.pl3   1  UNL1       -0.2930
     11 H          62.8086   86.4003    8.0015 H       1  UNL1        0.1538
     12 C          60.7761   86.7808    8.6494 C.2     1  UNL1        0.2056
     13 N          59.7381   86.1197    7.7917 N.2     1  UNL1       -0.0679
     14 O          58.3515   86.6873    7.7206 O.2     1  UNL1       -0.4077
     15 H          57.7031   86.2743    7.1848 H       1  UNL1        0.3278
@<TRIPOS>BOND
     1     7     8    1
     2     8     9    1
     3     8     1    1
     4     1     2   ar
     5     2     3   ar
     6     3     4   ar
     7     4    10    1
     8    10    12    1
     9    12    13    2
    10    13    14    1
    11     4     5   ar
    12     5     6   ar
    13     6     1   ar
    14    10    11    1
    15    14    15    1
@<TRIPOS>MOLECULE
*****
 15 15 0 0 0
SMALL
GASTEIGER

@<TRIPOS>ATOM
      1 C          61.2764   86.4222    9.3760 C.ar    1  UNL1       -0.0224
      2 C          62.2825   85.6836    8.5441 C.ar    1  UNL1       -0.0030
      3 C          63.2266   84.7153    9.1932 C.ar    1  UNL1        0.0143
      4 C          63.1645   84.4857   10.6741 C.ar    1  UNL1        0.0495
      5 C          62.1583   85.2242   11.5061 C.ar    1  UNL1        0.0143
      6 C          61.2143   86.1925   10.8570 C.ar    1  UNL1       -0.0030
      7 C          60.4553   88.8591    9.0058 C.3     1  UNL1        0.0047
      8 C          60.3323   87.3904    8.7269 C.3     1  UNL1        0.0224
      9 C          59.2654   86.8900    7.7990 C.3     1  UNL1        0.0047
     10 N          64.1085   83.5174   11.3232 N.pl3   1  UNL1       -0.2930
     11 H          64.7753   83.0399   10.7786 H       1  UNL1        0.1538
     12 C          64.0366   83.2767   12.8020 C.2     1  UNL1        0.2056
     13 N          64.8219   84.1427   13.7419 N.2     1  UNL1       -0.0679
     14 O          64.7500   83.9020   15.2207 O.2     1  UNL1       -0.4077
     15 H          65.2405   84.4429   15.8079 H       1  UNL1        0.3278
@<TRIPOS>BOND
     1     7     8    1
     2     8     9    1
     3     8     1    1
     4     1     2   ar
     5     2     3   ar
     6     3     4   ar
     7     4    10    1
     8    10    12    1
     9    12    13    2
    10    13    14    1
    11     4     5   ar
    12     5     6   ar
    13     6     1   ar
    14    10    11    1
    15    14    15    1
@<TRIPOS>MOLECULE
*****
 15 15 0 0 0
SMALL
GASTEIGER

@<TRIPOS>ATOM
      1 C          62.7590   84.6798   10.6893 C.ar    1  UNL1       -0.0224
      2 C          62.9678   85.0818    9.2594 C.ar    1  UNL1       -0.0030
      3 C          62.3823   86.3646    8.7478 C.ar    1  UNL1        0.0143
      4 C          61.5881   87.2453    9.6661 C.ar    1  UNL1        0.0495
      5 C          61.3793   86.8433   11.0960 C.ar    1  UNL1        0.0143
      6 C          61.9648   85.5606   11.6076 C.ar    1  UNL1       -0.0030
      7 C          64.2421   82.5787   10.3208 C.3     1  UNL1        0.0047
      8 C          63.3445   83.3970   11.2009 C.3     1  UNL1        0.0224
      9 C          63.0323   82.9326   12.5926 C.3     1  UNL1        0.0047
     10 N          61.0026   88.5281    9.1545 N.pl3   1  UNL1       -0.2930
     11 H          61.3224   88.9112    8.3058 H       1  UNL1        0.1538
     12 C          59.9299   89.2271    9.9358 C.2     1  UNL1        0.2056
     13 N          60.2631   90.4482   10.7408 N.2     1  UNL1       -0.0679
     14 O          59.1903   91.1472   11.5221 O.2     1  UNL1       -0.4077
     15 H          59.3985   91.9100   12.0250 H       1  UNL1        0.3278
@<TRIPOS>BOND
     1     7     8    1
     2     8     9    1
     3     8     1    1
     4     1     2   ar
     5     2     3   ar
     6     3     4   ar
     7     4    10    1
     8    10    12    1
     9    12    13    2
    10    13    14    1
    11     4     5   ar
    12     5     6   ar
    13     6     1   ar
    14    10    11    1
    15    14    15    1
@<TRIPOS>MOLECULE
*****
 15 15 0 0 0
SMALL
GASTEIGER

@<TRIPOS>ATOM
      1 C          63.7079   83.6730   12.5604 C.ar    1  UNL1       -0.0224
      2 C          63.0739   84.9590   12.1200 C.ar    1  UNL1       -0.0030
      3 C          63.2254   86.1949   12.9564 C.ar    1  UNL1        0.0143
      4 C          64.0110   86.1448   14.2332 C.ar    1  UNL1        0.0495
      5 C          64.6451   84.8587   14.6736 C.ar    1  UNL1        0.0143
      6 C          64.4935   83.6228   13.8372 C.ar    1  UNL1       -0.0030
      7 C          62.8975   81.2184   12.2991 C.3     1  UNL1        0.0047
      8 C          63.5563   82.4371   11.7240 C.3     1  UNL1        0.0224
      9 C          64.0636   82.4198   10.3125 C.3     1  UNL1        0.0047
     10 N          64.1626   87.3807   15.0696 N.pl3   1  UNL1       -0.2930
     11 H          64.2843   87.3041   16.0435 H       1  UNL1        0.1538
     12 C          64.1287   88.7333   14.4221 C.2     1  UNL1        0.2056
     13 N          63.1539   89.7688   14.8990 N.2     1  UNL1       -0.0679
     14 O          63.1200   91.1215   14.2515 O.2     1  UNL1       -0.4077
     15 H          62.5111   91.7684   14.5493 H       1  UNL1        0.3278
@<TRIPOS>BOND
     1     7     8    1
     2     8     9    1
     3     8     1    1
     4     1     2   ar
     5     2     3   ar
     6     3     4   ar
     7     4    10    1
     8    10    12    1
     9    12    13    2
    10    13    14    1
    11     4     5   ar
    12     5     6   ar
    13     6     1   ar
    14    10    11    1
    15    14    15    1
@<TRIPOS>MOLECULE
*****
 15 15 0 0 0
SMALL
GASTEIGER

@<TRIPOS>ATOM
      1 C          63.0253   84.4275   10.7410 C.ar    1  UNL1       -0.0224
      2 C          63.1067   84.8087    9.2925 C.ar    1  UNL1       -0.0030
      3 C          62.4211   86.0502    8.8041 C.ar    1  UNL1        0.0143
      4 C          61.6541   86.9105    9.7640 C.ar    1  UNL1        0.0495
      5 C          61.5727   86.5293   11.2125 C.ar    1  UNL1        0.0143
      6 C          62.2583   85.2878   11.7009 C.ar    1  UNL1       -0.0030
      7 C          64.3282   83.1585   12.5962 C.3     1  UNL1        0.0047
      8 C          63.7109   83.1860   11.2294 C.3     1  UNL1        0.0224
      9 C          63.7792   81.9720   10.3511 C.3     1  UNL1        0.0047
     10 N          60.9685   88.1520    9.2756 N.pl3   1  UNL1       -0.2930
     11 H          61.1828   89.0240    9.6794 H       1  UNL1        0.1538
     12 C          59.9564   88.0651    8.1720 C.2     1  UNL1        0.2056
     13 N          59.6118   89.2865    7.3724 N.2     1  UNL1       -0.0679
     14 O          58.5996   89.1995    6.2687 O.2     1  UNL1       -0.4077
     15 H          58.3843   89.9625    5.7692 H       1  UNL1        0.3278
@<TRIPOS>BOND
     1     7     8    1
     2     8     9    1
     3     8     1    1
     4     1     2   ar
     5     2     3   ar
     6     3     4   ar
     7     4    10    1
     8    10    12    1
     9    12    13    2
    10    13    14    1
    11     4     5   ar
    12     5     6   ar
    13     6     1   ar
    14    10    11    1
    15    14    15    1
@<TRIPOS>MOLECULE
*****
 15 15 0 0 0
SMALL
GASTEIGER

@<TRIPOS>ATOM
      1 C          65.4185   91.4527   13.7069 C.ar    1  UNL1       -0.0224
      2 C          64.9737   90.1925   14.3882 C.ar    1  UNL1       -0.0030
      3 C          63.8930   89.3508   13.7770 C.ar    1  UNL1        0.0143
      4 C          63.2570   89.7692   12.4846 C.ar    1  UNL1        0.0495
      5 C          63.7017   91.0294   11.8034 C.ar    1  UNL1        0.0143
      6 C          64.7825   91.8711   12.4145 C.ar    1  UNL1       -0.0030
      7 C          67.5351   91.6613   15.1991 C.3     1  UNL1        0.0047
      8 C          66.4992   92.2944   14.3181 C.3     1  UNL1        0.0224
      9 C          66.5441   93.7692   14.0483 C.3     1  UNL1        0.0047
     10 N          62.1763   88.9275   11.8734 N.pl3   1  UNL1       -0.2930
     11 H          61.6679   88.2968   12.4329 H       1  UNL1        0.1538
     12 C          61.8701   89.0467   10.4099 C.2     1  UNL1        0.2056
     13 N          60.5141   89.5060    9.9623 N.2     1  UNL1       -0.0679
     14 O          60.2080   89.6252    8.4987 O.2     1  UNL1       -0.4077
     15 H          59.3609   89.9121    8.2190 H       1  UNL1        0.3278
@<TRIPOS>BOND
     1     7     8    1
     2     8     9    1
     3     8     1    1
     4     1     2   ar
     5     2     3   ar
     6     3     4   ar
     7     4    10    1
     8    10    12    1
     9    12    13    2
    10    13    14    1
    11     4     5   ar
    12     5     6   ar
    13     6     1   ar
    14    10    11    1
    15    14    15    1
