@<TRIPOS>MOLECULE
*****
 43 48 0 0 0
SMALL
GASTEIGER

@<TRIPOS>ATOM
      1 N          60.4583   88.8829   10.2337 N.am    1  UNL1       -0.2223
      2 C          60.1351   89.9525    9.2328 C.2     1  UNL1        0.3219
      3 O          59.6834   91.3477    9.5481 O.2     1  UNL1       -0.2512
      4 N          60.3429   89.3819    7.8612 N.am    1  UNL1       -0.1907
      5 C          60.7945   87.9597    8.0144 C.2     1  UNL1        0.2529
      6 O          61.1181   87.0122    6.8975 O.2     1  UNL1       -0.2724
      7 C          60.8658   87.6513    9.4807 C.3     1  UNL1        0.1391
      8 C          60.8895   87.4905   10.9718 C.3     1  UNL1        0.0449
      9 C          61.2968   86.1806   11.5785 C.3     1  UNL1        0.0746
     10 N          61.6805   85.0314   10.6940 N.3     1  UNL1       -0.2676
     11 C          61.6568   85.1922    9.2029 C.3     1  UNL1        0.0746
     12 C          61.2495   86.5022    8.5962 C.3     1  UNL1        0.0449
     13 C          62.7841   89.8326   14.7821 C.3     1  UNL1        0.0737
     14 C          61.5494   89.4957   13.9998 C.ar    1  UNL1        0.1410
     15 N          60.2429   89.2966   14.7094 N.ar    1  UNL1       -0.2291
     16 C          59.0082   88.9597   13.9271 C.ar    1  UNL1        0.1031
     17 C          59.0800   88.8218   12.4351 C.ar    1  UNL1        0.0554
     18 C          60.3865   89.0208   11.7256 C.ar    1  UNL1        0.1418
     19 N          61.6211   89.3577   12.5079 N.ar    1  UNL1       -0.2156
     20 C          60.1356   90.1062    6.5642 C.ar    1  UNL1        0.0622
     21 C          61.3132   90.4533    5.7024 C.ar    1  UNL1        0.0154
     22 C          61.1058   91.1777    4.4054 C.ar    1  UNL1        0.0013
     23 C          59.7208   91.5550    3.9701 C.ar    1  UNL1       -0.0002
     24 C          58.5431   91.2078    4.8319 C.ar    1  UNL1        0.0013
     25 C          58.7506   90.4834    6.1290 C.ar    1  UNL1        0.0154
     26 C          59.5134   92.2793    2.6731 C.ar    1  UNL1       -0.0040
     27 C          58.1574   92.2965    2.0321 C.ar    1  UNL1       -0.0003
     28 C          57.9500   93.0209    0.7351 C.ar    1  UNL1        0.0011
     29 C          59.0988   93.7281    0.0791 C.ar    1  UNL1        0.0137
     30 C          60.4548   93.7109    0.7201 C.ar    1  UNL1       -0.0031
     31 C          60.6622   92.9866    2.0170 C.ar    1  UNL1       -0.0218
     32 C          62.0182   92.9694    2.6580 C.3     1  UNL1        0.0310
     33 C          58.8914   94.4525   -1.2179 C.2     1  UNL1        0.0729
     34 O          59.4336   93.8778   -2.4930 O.co2   1  UNL1       -0.5446
     35 O          58.1417   95.7516   -1.2399 O.co2   1  UNL1       -0.5446
     36 C          62.0878   83.7214   11.3007 C.3     1  UNL1        0.1183
     37 C          62.8545   83.6980   12.5897 C.ar    1  UNL1        0.0712
     38 N          63.6855   84.8811   12.9897 N.ar    1  UNL1       -0.2471
     39 C          64.4522   84.8576   14.2788 C.ar    1  UNL1        0.0985
     40 C          64.3879   83.6512   15.1679 C.ar    1  UNL1        0.0203
     41 C          63.5569   82.4682   14.7679 C.ar    1  UNL1       -0.0015
     42 C          62.7903   82.4916   13.4789 C.ar    1  UNL1       -0.0069
     43 C          61.9593   81.3086   13.0789 C.3     1  UNL1        0.0323
@<TRIPOS>UNITY_ATOM_ATTR
34 1
charge -1
@<TRIPOS>BOND
     1    13    14    1
     2    14    15   ar
     3    15    16   ar
     4    16    17   ar
     5    17    18   ar
     6    18     1    1
     7     1     2   am
     8     2     3    2
     9     2     4   am
    10     4    20    1
    11    20    21   ar
    12    21    22   ar
    13    22    23   ar
    14    23    26    1
    15    26    27   ar
    16    27    28   ar
    17    28    29   ar
    18    29    33    1
    19    33    34   ar
    20    33    35   ar
    21    29    30   ar
    22    30    31   ar
    23    31    32    1
    24    23    24   ar
    25    24    25   ar
    26     4     5   am
    27     5     6    2
    28     5     7    1
    29     7     8    1
    30     8     9    1
    31     9    10    1
    32    10    36    1
    33    36    37    1
    34    37    38   ar
    35    38    39   ar
    36    39    40   ar
    37    40    41   ar
    38    41    42   ar
    39    42    43    1
    40    10    11    1
    41    11    12    1
    42    18    19   ar
    43    19    14   ar
    44     7     1    1
    45    42    37   ar
    46    25    20   ar
    47    12     7    1
    48    31    26   ar
@<TRIPOS>MOLECULE
*****
 43 48 0 0 0
SMALL
GASTEIGER

@<TRIPOS>ATOM
      1 N          62.6485   89.2904   11.3142 N.am    1  UNL1       -0.2223
      2 C          62.2760   90.2368   10.2114 C.2     1  UNL1        0.3219
      3 O          62.4818   91.7225   10.2175 O.2     1  UNL1       -0.2512
      4 N          61.6615   89.4363    9.1016 N.am    1  UNL1       -0.1907
      5 C          61.6542   87.9954    9.5183 C.2     1  UNL1        0.2529
      6 O          61.1292   86.8463    8.7097 O.2     1  UNL1       -0.2724
      7 C          62.2642   87.9052   10.8858 C.3     1  UNL1        0.1391
      8 C          62.8924   87.9709   12.2463 C.3     1  UNL1        0.0449
      9 C          63.0844   86.7159   13.0451 C.3     1  UNL1        0.0746
     10 N          62.6482   85.3952   12.4833 N.3     1  UNL1       -0.2676
     11 C          62.0201   85.3295   11.1228 C.3     1  UNL1        0.0746
     12 C          61.8281   86.5845   10.3241 C.3     1  UNL1        0.0449
     13 C          62.6874   89.1815   16.5090 C.3     1  UNL1        0.0737
     14 C          63.3116   89.6094   15.2139 C.ar    1  UNL1        0.1410
     15 N          64.5797   90.4107   15.2212 N.ar    1  UNL1       -0.2291
     16 C          65.2040   90.8386   13.9261 C.ar    1  UNL1        0.1031
     17 C          64.5602   90.4652   12.6238 C.ar    1  UNL1        0.0554
     18 C          63.2922   89.6639   12.6165 C.ar    1  UNL1        0.1418
     19 N          62.6680   89.2360   13.9116 N.ar    1  UNL1       -0.2156
     20 C          61.1450   89.9811    7.8031 C.ar    1  UNL1        0.0622
     21 C          62.0365   90.8160    6.9324 C.ar    1  UNL1        0.0154
     22 C          61.5200   91.3609    5.6338 C.ar    1  UNL1        0.0013
     23 C          60.1119   91.0708    5.2058 C.ar    1  UNL1       -0.0002
     24 C          59.2203   90.2358    6.0765 C.ar    1  UNL1        0.0013
     25 C          59.7369   89.6910    7.3751 C.ar    1  UNL1        0.0154
     26 C          59.5954   91.6156    3.9072 C.ar    1  UNL1       -0.0040
     27 C          60.5513   91.9486    2.8004 C.ar    1  UNL1       -0.0003
     28 C          60.0348   92.4934    1.5017 C.ar    1  UNL1        0.0011
     29 C          58.5622   92.7052    1.3101 C.ar    1  UNL1        0.0137
     30 C          57.6062   92.3723    2.4170 C.ar    1  UNL1       -0.0031
     31 C          58.1227   91.8275    3.7155 C.ar    1  UNL1       -0.0218
     32 C          57.1668   91.4945    4.8224 C.3     1  UNL1        0.0310
     33 C          58.0457   93.2501    0.0115 C.2     1  UNL1        0.0729
     34 O          58.5826   94.5436   -0.5257 O.co2   1  UNL1       -0.5446
     35 O          56.9922   92.5014   -0.7499 O.co2   1  UNL1       -0.5446
     36 C          62.8402   84.1402   13.2822 C.3     1  UNL1        0.1183
     37 C          62.9033   82.8118   12.5884 C.ar    1  UNL1        0.0712
     38 N          63.5261   82.7050   11.2280 N.ar    1  UNL1       -0.2471
     39 C          63.5891   81.3765   10.5342 C.ar    1  UNL1        0.0985
     40 C          63.0294   80.1550   11.2008 C.ar    1  UNL1        0.0203
     41 C          62.4066   80.2618   12.5612 C.ar    1  UNL1       -0.0015
     42 C          62.3435   81.5901   13.2550 C.ar    1  UNL1       -0.0069
     43 C          61.7207   81.6970   14.6154 C.3     1  UNL1        0.0323
@<TRIPOS>UNITY_ATOM_ATTR
34 1
charge -1
@<TRIPOS>BOND
     1    13    14    1
     2    14    15   ar
     3    15    16   ar
     4    16    17   ar
     5    17    18   ar
     6    18     1    1
     7     1     2   am
     8     2     3    2
     9     2     4   am
    10     4    20    1
    11    20    21   ar
    12    21    22   ar
    13    22    23   ar
    14    23    26    1
    15    26    27   ar
    16    27    28   ar
    17    28    29   ar
    18    29    33    1
    19    33    34   ar
    20    33    35   ar
    21    29    30   ar
    22    30    31   ar
    23    31    32    1
    24    23    24   ar
    25    24    25   ar
    26     4     5   am
    27     5     6    2
    28     5     7    1
    29     7     8    1
    30     8     9    1
    31     9    10    1
    32    10    36    1
    33    36    37    1
    34    37    38   ar
    35    38    39   ar
    36    39    40   ar
    37    40    41   ar
    38    41    42   ar
    39    42    43    1
    40    10    11    1
    41    11    12    1
    42    18    19   ar
    43    19    14   ar
    44     7     1    1
    45    42    37   ar
    46    25    20   ar
    47    12     7    1
    48    31    26   ar
