@<TRIPOS>MOLECULE
*****
 25 27 0 0 0
SMALL
GASTEIGER

@<TRIPOS>ATOM
      1 C          64.4715   90.6954   12.9844 C.ar    1  UNL1        0.0816
      2 C          63.8864   91.4047   11.7993 C.ar    1  UNL1        0.0172
      3 C          62.9514   90.6795   10.8776 C.ar    1  UNL1        0.0014
      4 C          62.6014   89.2449   11.1410 C.ar    1  UNL1        0.0023
      5 C          63.1864   88.5355   12.3261 C.ar    1  UNL1        0.0309
      6 C          64.1214   89.2608   13.2478 C.ar    1  UNL1        0.1537
      7 F          64.7065   88.5514   14.4330 F       1  UNL1       -0.2029
      8 C          61.6663   88.5196   10.2192 C.ar    1  UNL1        0.0002
      9 C          60.7230   89.2935    9.3467 C.ar    1  UNL1        0.0023
     10 C          59.7879   88.5682    8.4250 C.ar    1  UNL1        0.0296
     11 C          59.7962   87.0691    8.3757 C.ar    1  UNL1        0.1401
     12 F          58.8611   86.3438    7.4538 F       1  UNL1       -0.2042
     13 C          60.7395   86.2952    9.2481 C.ar    1  UNL1        0.0296
     14 C          61.6746   87.0204   10.1698 C.ar    1  UNL1        0.0023
     15 C          63.6870   91.1808   15.8391 C.3     1  UNL1        0.0952
     16 C          65.0143   91.6634   15.3336 C.2     1  UNL1        0.2302
     17 O          65.9494   92.3886   16.2554 O.2     1  UNL1       -0.2745
     18 N          65.4065   91.4207   13.9063 N.am    1  UNL1       -0.2522
     19 C          66.7338   91.9032   13.4007 C.3     1  UNL1        0.1263
     20 C          66.7971   92.8120   12.2090 C.ar    1  UNL1        0.0172
     21 C          67.3905   92.3208   10.9219 C.ar    1  UNL1        0.0005
     22 C          67.4538   93.2295    9.7303 C.ar    1  UNL1        0.0204
     23 C          66.9237   94.6295    9.8257 C.ar    1  UNL1        0.0989
     24 N          66.3304   95.1207   11.1127 N.ar    1  UNL1       -0.2426
     25 C          66.2670   94.2119   12.3044 C.ar    1  UNL1        0.0962
@<TRIPOS>BOND
     1    15    16    1
     2    16    17    2
     3    16    18   am
     4    18    19    1
     5    19    20    1
     6    20    21   ar
     7    21    22   ar
     8    22    23   ar
     9    23    24   ar
    10    24    25   ar
    11    18     1    1
    12     1     2   ar
    13     2     3   ar
    14     3     4   ar
    15     4     8    1
    16     8     9   ar
    17     9    10   ar
    18    10    11   ar
    19    11    12    1
    20    11    13   ar
    21    13    14   ar
    22     4     5   ar
    23     5     6   ar
    24     6     7    1
    25    25    20   ar
    26     6     1   ar
    27    14     8   ar
@<TRIPOS>MOLECULE
*****
 25 27 0 0 0
SMALL
GASTEIGER

@<TRIPOS>ATOM
      1 C          63.9981   88.3940   13.9767 C.ar    1  UNL1        0.0816
      2 C          64.4957   87.2885   14.8600 C.ar    1  UNL1        0.0172
      3 C          64.2838   85.8578   14.4623 C.ar    1  UNL1        0.0014
      4 C          63.5741   85.5327   13.1814 C.ar    1  UNL1        0.0023
      5 C          63.0765   86.6382   12.2981 C.ar    1  UNL1        0.0309
      6 C          63.2885   88.0689   12.6958 C.ar    1  UNL1        0.1537
      7 F          62.7909   89.1745   11.8126 F       1  UNL1       -0.2029
      8 C          63.3622   84.1019   12.7837 C.ar    1  UNL1        0.0002
      9 C          62.7483   83.1368   13.7541 C.ar    1  UNL1        0.0023
     10 C          62.5364   81.7062   13.3565 C.ar    1  UNL1        0.0296
     11 C          62.9383   81.2406   11.9884 C.ar    1  UNL1        0.1401
     12 F          62.7263   79.8098   11.5907 F       1  UNL1       -0.2042
     13 C          63.5521   82.2056   11.0179 C.ar    1  UNL1        0.0296
     14 C          63.7641   83.6363   11.4156 C.ar    1  UNL1        0.0023
     15 C          62.8757   89.4134   16.5654 C.3     1  UNL1        0.0952
     16 C          63.6489   90.3345   15.6687 C.2     1  UNL1        0.2302
     17 O          63.8609   91.7652   16.0664 O.2     1  UNL1       -0.2745
     18 N          64.2101   89.8248   14.3744 N.am    1  UNL1       -0.2522
     19 C          64.9832   90.7458   13.4778 C.3     1  UNL1        0.1263
     20 C          66.0423   91.6387   14.0533 C.ar    1  UNL1        0.0172
     21 C          67.0590   91.0798   15.0041 C.ar    1  UNL1        0.0005
     22 C          68.1179   91.9727   15.5797 C.ar    1  UNL1        0.0204
     23 C          68.1603   93.4244   15.2044 C.ar    1  UNL1        0.0989
     24 N          67.1436   93.9832   14.2536 N.ar    1  UNL1       -0.2426
     25 C          66.0846   93.0903   13.6780 C.ar    1  UNL1        0.0962
@<TRIPOS>BOND
     1    15    16    1
     2    16    17    2
     3    16    18   am
     4    18    19    1
     5    19    20    1
     6    20    21   ar
     7    21    22   ar
     8    22    23   ar
     9    23    24   ar
    10    24    25   ar
    11    18     1    1
    12     1     2   ar
    13     2     3   ar
    14     3     4   ar
    15     4     8    1
    16     8     9   ar
    17     9    10   ar
    18    10    11   ar
    19    11    12    1
    20    11    13   ar
    21    13    14   ar
    22     4     5   ar
    23     5     6   ar
    24     6     7    1
    25    25    20   ar
    26     6     1   ar
    27    14     8   ar
@<TRIPOS>MOLECULE
*****
 25 27 0 0 0
SMALL
GASTEIGER

@<TRIPOS>ATOM
      1 C          62.6832   89.2763   11.5400 C.ar    1  UNL1        0.0816
      2 C          63.1978   88.7076   12.8291 C.ar    1  UNL1        0.0172
      3 C          64.1972   89.4760   13.6419 C.ar    1  UNL1        0.0014
      4 C          64.6820   90.8132   13.1656 C.ar    1  UNL1        0.0023
      5 C          64.1674   91.3820   11.8766 C.ar    1  UNL1        0.0309
      6 C          63.1680   90.6136   11.0638 C.ar    1  UNL1        0.1537
      7 F          62.6534   91.1823    9.7747 F       1  UNL1       -0.2029
      8 C          65.6814   91.5817   13.9785 C.ar    1  UNL1        0.0002
      9 C          65.3864   91.9138   15.4112 C.ar    1  UNL1        0.0023
     10 C          66.3858   92.6823   16.2240 C.ar    1  UNL1        0.0296
     11 C          67.6802   93.1185   15.6041 C.ar    1  UNL1        0.1401
     12 F          68.6797   93.8870   16.4169 F       1  UNL1       -0.2042
     13 C          67.9752   92.7864   14.1714 C.ar    1  UNL1        0.0296
     14 C          66.9758   92.0180   13.3586 C.ar    1  UNL1        0.0023
     15 C          59.7479   89.7700   11.9144 C.3     1  UNL1        0.0952
     16 C          60.2161   88.7547   10.9143 C.2     1  UNL1        0.2302
     17 O          59.2167   87.9864   10.1015 O.2     1  UNL1       -0.2745
     18 N          61.6838   88.5079   10.7272 N.am    1  UNL1       -0.2522
     19 C          62.1520   87.4926    9.7272 C.3     1  UNL1        0.1263
     20 C          62.5007   86.1041   10.1751 C.ar    1  UNL1        0.0172
     21 C          63.1741   85.1571    9.2267 C.ar    1  UNL1        0.0005
     22 C          63.5227   83.7686    9.6747 C.ar    1  UNL1        0.0204
     23 C          63.1979   83.3273   11.0710 C.ar    1  UNL1        0.0989
     24 N          62.5244   84.2743   12.0193 N.ar    1  UNL1       -0.2426
     25 C          62.1758   85.6628   11.5714 C.ar    1  UNL1        0.0962
@<TRIPOS>BOND
     1    15    16    1
     2    16    17    2
     3    16    18   am
     4    18    19    1
     5    19    20    1
     6    20    21   ar
     7    21    22   ar
     8    22    23   ar
     9    23    24   ar
    10    24    25   ar
    11    18     1    1
    12     1     2   ar
    13     2     3   ar
    14     3     4   ar
    15     4     8    1
    16     8     9   ar
    17     9    10   ar
    18    10    11   ar
    19    11    12    1
    20    11    13   ar
    21    13    14   ar
    22     4     5   ar
    23     5     6   ar
    24     6     7    1
    25    25    20   ar
    26     6     1   ar
    27    14     8   ar
@<TRIPOS>MOLECULE
*****
 25 27 0 0 0
SMALL
GASTEIGER

@<TRIPOS>ATOM
      1 C          63.7062   88.2255   13.5837 C.ar    1  UNL1        0.0816
      2 C          62.9295   87.9088   12.3402 C.ar    1  UNL1        0.0172
      3 C          62.7780   86.4852   11.8927 C.ar    1  UNL1        0.0014
      4 C          63.4032   85.3782   12.6889 C.ar    1  UNL1        0.0023
      5 C          64.1799   85.6949   13.9324 C.ar    1  UNL1        0.0309
      6 C          64.3314   87.1185   14.3798 C.ar    1  UNL1        0.1537
      7 F          65.1081   87.4353   15.6234 F       1  UNL1       -0.2029
      8 C          63.2516   83.9545   12.2414 C.ar    1  UNL1        0.0002
      9 C          62.5519   82.9620   13.1219 C.ar    1  UNL1        0.0023
     10 C          62.4003   81.5384   12.6744 C.ar    1  UNL1        0.0296
     11 C          62.9486   81.1072   11.3464 C.ar    1  UNL1        0.1401
     12 F          62.7970   79.6835   10.8989 F       1  UNL1       -0.2042
     13 C          63.6483   82.0997   10.4659 C.ar    1  UNL1        0.0296
     14 C          63.7998   83.5233   10.9134 C.ar    1  UNL1        0.0023
     15 C          62.6678   89.0728   16.2676 C.3     1  UNL1        0.0952
     16 C          63.3386   90.0729   15.3732 C.2     1  UNL1        0.2302
     17 O          63.4901   91.4965   15.8206 O.2     1  UNL1       -0.2745
     18 N          63.8578   89.6492   14.0312 N.am    1  UNL1       -0.2522
     19 C          64.5286   90.6491   13.1367 C.3     1  UNL1        0.1263
     20 C          65.6472   91.4971   13.6657 C.ar    1  UNL1        0.0172
     21 C          66.5858   90.9428   14.6960 C.ar    1  UNL1        0.0005
     22 C          67.7043   91.7907   15.2250 C.ar    1  UNL1        0.0204
     23 C          67.8842   93.1930   14.7236 C.ar    1  UNL1        0.0989
     24 N          66.9456   93.7473   13.6933 N.ar    1  UNL1       -0.2426
     25 C          65.8270   92.8993   13.1644 C.ar    1  UNL1        0.0962
@<TRIPOS>BOND
     1    15    16    1
     2    16    17    2
     3    16    18   am
     4    18    19    1
     5    19    20    1
     6    20    21   ar
     7    21    22   ar
     8    22    23   ar
     9    23    24   ar
    10    24    25   ar
    11    18     1    1
    12     1     2   ar
    13     2     3   ar
    14     3     4   ar
    15     4     8    1
    16     8     9   ar
    17     9    10   ar
    18    10    11   ar
    19    11    12    1
    20    11    13   ar
    21    13    14   ar
    22     4     5   ar
    23     5     6   ar
    24     6     7    1
    25    25    20   ar
    26     6     1   ar
    27    14     8   ar
@<TRIPOS>MOLECULE
*****
 25 27 0 0 0
SMALL
GASTEIGER

@<TRIPOS>ATOM
      1 C          63.6230   90.2786   12.5461 C.ar    1  UNL1        0.0816
      2 C          63.5806   88.8103   12.8495 C.ar    1  UNL1        0.0172
      3 C          63.0060   87.8536   11.8472 C.ar    1  UNL1        0.0014
      4 C          62.4738   88.3653   10.5415 C.ar    1  UNL1        0.0023
      5 C          62.5161   89.8336   10.2381 C.ar    1  UNL1        0.0309
      6 C          63.0907   90.7903   11.2403 C.ar    1  UNL1        0.1537
      7 F          63.1331   92.2587   10.9369 F       1  UNL1       -0.2029
      8 C          61.8991   87.4085    9.5392 C.ar    1  UNL1        0.0002
      9 C          60.4635   87.5315    9.1224 C.ar    1  UNL1        0.0023
     10 C          59.8890   86.5748    8.1202 C.ar    1  UNL1        0.0296
     11 C          60.7501   85.4951    7.5348 C.ar    1  UNL1        0.1401
     12 F          60.1754   84.5383    6.5325 F       1  UNL1       -0.2042
     13 C          62.1857   85.3721    7.9516 C.ar    1  UNL1        0.0296
     14 C          62.7602   86.3288    8.9538 C.ar    1  UNL1        0.0023
     15 C          63.3023   89.7480   15.4813 C.3     1  UNL1        0.0952
     16 C          64.0372   90.9701   15.0160 C.2     1  UNL1        0.2302
     17 O          64.6118   91.9267   16.0182 O.2     1  UNL1       -0.2745
     18 N          64.1976   91.2354   13.5483 N.am    1  UNL1       -0.2522
     19 C          64.9325   92.4574   13.0830 C.3     1  UNL1        0.1263
     20 C          66.2111   92.3153   12.3114 C.ar    1  UNL1        0.0172
     21 C          66.2399   92.6248   10.8440 C.ar    1  UNL1        0.0005
     22 C          67.5183   92.4827   10.0726 C.ar    1  UNL1        0.0204
     23 C          68.7680   92.0311   10.7685 C.ar    1  UNL1        0.0989
     24 N          68.7392   91.7216   12.2359 N.ar    1  UNL1       -0.2426
     25 C          67.4607   91.8637   13.0074 C.ar    1  UNL1        0.0962
@<TRIPOS>BOND
     1    15    16    1
     2    16    17    2
     3    16    18   am
     4    18    19    1
     5    19    20    1
     6    20    21   ar
     7    21    22   ar
     8    22    23   ar
     9    23    24   ar
    10    24    25   ar
    11    18     1    1
    12     1     2   ar
    13     2     3   ar
    14     3     4   ar
    15     4     8    1
    16     8     9   ar
    17     9    10   ar
    18    10    11   ar
    19    11    12    1
    20    11    13   ar
    21    13    14   ar
    22     4     5   ar
    23     5     6   ar
    24     6     7    1
    25    25    20   ar
    26     6     1   ar
    27    14     8   ar
@<TRIPOS>MOLECULE
*****
 25 27 0 0 0
SMALL
GASTEIGER

@<TRIPOS>ATOM
      1 C          63.5192   89.9766   12.5772 C.ar    1  UNL1        0.0816
      2 C          63.4680   88.5034   12.8550 C.ar    1  UNL1        0.0172
      3 C          62.9678   87.5587   11.8028 C.ar    1  UNL1        0.0014
      4 C          62.5188   88.0871   10.4727 C.ar    1  UNL1        0.0023
      5 C          62.5699   89.5602   10.1948 C.ar    1  UNL1        0.0309
      6 C          63.0701   90.5049   11.2471 C.ar    1  UNL1        0.1537
      7 F          63.1213   91.9782   10.9692 F       1  UNL1       -0.2029
      8 C          62.0186   87.1423    9.4204 C.ar    1  UNL1        0.0002
      9 C          62.9390   86.1090    8.8415 C.ar    1  UNL1        0.0023
     10 C          62.4388   85.1643    7.7893 C.ar    1  UNL1        0.0296
     11 C          61.0181   85.2528    7.3161 C.ar    1  UNL1        0.1401
     12 F          60.5179   84.3079    6.2638 F       1  UNL1       -0.2042
     13 C          60.0977   86.2860    7.8950 C.ar    1  UNL1        0.0296
     14 C          60.5980   87.2307    8.9472 C.ar    1  UNL1        0.0023
     15 C          62.8904   89.4725   15.4669 C.3     1  UNL1        0.0952
     16 C          63.7050   90.6694   15.0743 C.2     1  UNL1        0.2302
     17 O          64.2051   91.6141   16.1265 O.2     1  UNL1       -0.2745
     18 N          64.0194   90.9214   13.6294 N.am    1  UNL1       -0.2522
     19 C          64.8339   92.1182   13.2368 C.3     1  UNL1        0.1263
     20 C          66.2000   92.3206   13.8226 C.ar    1  UNL1        0.0172
     21 C          66.3536   93.0067   15.1476 C.ar    1  UNL1        0.0005
     22 C          67.7196   93.2091   15.7333 C.ar    1  UNL1        0.0204
     23 C          68.9319   92.7255   14.9940 C.ar    1  UNL1        0.0989
     24 N          68.7782   92.0395   13.6690 N.ar    1  UNL1       -0.2426
     25 C          67.4122   91.8371   13.0833 C.ar    1  UNL1        0.0962
@<TRIPOS>BOND
     1    15    16    1
     2    16    17    2
     3    16    18   am
     4    18    19    1
     5    19    20    1
     6    20    21   ar
     7    21    22   ar
     8    22    23   ar
     9    23    24   ar
    10    24    25   ar
    11    18     1    1
    12     1     2   ar
    13     2     3   ar
    14     3     4   ar
    15     4     8    1
    16     8     9   ar
    17     9    10   ar
    18    10    11   ar
    19    11    12    1
    20    11    13   ar
    21    13    14   ar
    22     4     5   ar
    23     5     6   ar
    24     6     7    1
    25    25    20   ar
    26     6     1   ar
    27    14     8   ar
@<TRIPOS>MOLECULE
*****
 25 27 0 0 0
SMALL
GASTEIGER

@<TRIPOS>ATOM
      1 C          63.2313   88.1041   12.8560 C.ar    1  UNL1        0.0816
      2 C          62.4491   87.5798   11.6884 C.ar    1  UNL1        0.0172
      3 C          62.3772   86.1029   11.4363 C.ar    1  UNL1        0.0014
      4 C          63.0875   85.1503   12.3517 C.ar    1  UNL1        0.0023
      5 C          63.8697   85.6746   13.5193 C.ar    1  UNL1        0.0309
      6 C          63.9416   87.1515   13.7714 C.ar    1  UNL1        0.1537
      7 F          64.7238   87.6759   14.9390 F       1  UNL1       -0.2029
      8 C          63.0156   83.6734   12.0996 C.ar    1  UNL1        0.0002
      9 C          63.5082   83.1096   10.7998 C.ar    1  UNL1        0.0023
     10 C          63.4362   81.6327   10.5476 C.ar    1  UNL1        0.0296
     11 C          62.8718   80.7196   11.5953 C.ar    1  UNL1        0.1401
     12 F          62.7999   79.2427   11.3432 F       1  UNL1       -0.2042
     13 C          62.3792   81.2834   12.8951 C.ar    1  UNL1        0.0296
     14 C          62.4512   82.7603   13.1472 C.ar    1  UNL1        0.0023
     15 C          63.3692   90.0150   10.5474 C.3     1  UNL1        0.0952
     16 C          63.3722   90.5365   11.9538 C.2     1  UNL1        0.2302
     17 O          63.4441   92.0134   12.2059 O.2     1  UNL1       -0.2745
     18 N          63.3032   89.5811   13.1081 N.am    1  UNL1       -0.2522
     19 C          63.3061   90.1025   14.5145 C.3     1  UNL1        0.1263
     20 C          64.4551   90.9333   15.0041 C.ar    1  UNL1        0.0172
     21 C          65.7950   90.8265   14.3384 C.ar    1  UNL1        0.0005
     22 C          66.9440   91.6572   14.8279 C.ar    1  UNL1        0.0204
     23 C          66.7531   92.5947   15.9832 C.ar    1  UNL1        0.0989
     24 N          65.4132   92.7015   16.6489 N.ar    1  UNL1       -0.2426
     25 C          64.2642   91.8708   16.1594 C.ar    1  UNL1        0.0962
@<TRIPOS>BOND
     1    15    16    1
     2    16    17    2
     3    16    18   am
     4    18    19    1
     5    19    20    1
     6    20    21   ar
     7    21    22   ar
     8    22    23   ar
     9    23    24   ar
    10    24    25   ar
    11    18     1    1
    12     1     2   ar
    13     2     3   ar
    14     3     4   ar
    15     4     8    1
    16     8     9   ar
    17     9    10   ar
    18    10    11   ar
    19    11    12    1
    20    11    13   ar
    21    13    14   ar
    22     4     5   ar
    23     5     6   ar
    24     6     7    1
    25    25    20   ar
    26     6     1   ar
    27    14     8   ar
@<TRIPOS>MOLECULE
*****
 25 27 0 0 0
SMALL
GASTEIGER

@<TRIPOS>ATOM
      1 C          62.4038   88.6009   11.5636 C.ar    1  UNL1        0.0816
      2 C          62.4453   90.0265   11.0992 C.ar    1  UNL1        0.0172
      3 C          63.3736   91.0032   11.7582 C.ar    1  UNL1        0.0014
      4 C          64.2603   90.5543   12.8817 C.ar    1  UNL1        0.0023
      5 C          64.2187   89.1286   13.3461 C.ar    1  UNL1        0.0309
      6 C          63.2905   88.1520   12.6871 C.ar    1  UNL1        0.1537
      7 F          63.2489   86.7262   13.1515 F       1  UNL1       -0.2029
      8 C          65.1886   91.5311   13.5407 C.ar    1  UNL1        0.0002
      9 C          65.6681   92.7359   12.7867 C.ar    1  UNL1        0.0023
     10 C          66.5963   93.7126   13.4458 C.ar    1  UNL1        0.0296
     11 C          67.0450   93.4845   14.8588 C.ar    1  UNL1        0.1401
     12 F          67.9733   94.4613   15.5178 F       1  UNL1       -0.2042
     13 C          66.5655   92.2797   15.6128 C.ar    1  UNL1        0.0296
     14 C          65.6373   91.3030   14.9537 C.ar    1  UNL1        0.0023
     15 C          60.8241   89.4267    9.1506 C.3     1  UNL1        0.0952
     16 C          60.6856   88.0370    9.6981 C.2     1  UNL1        0.2302
     17 O          59.7574   87.0603    9.0391 O.2     1  UNL1       -0.2745
     18 N          61.4755   87.6241   10.9046 N.am    1  UNL1       -0.2522
     19 C          61.3371   86.2345   11.4520 C.3     1  UNL1        0.1263
     20 C          62.2558   85.1471   10.9790 C.ar    1  UNL1        0.0172
     21 C          62.8193   85.1929    9.5897 C.ar    1  UNL1        0.0005
     22 C          63.7378   84.1055    9.1167 C.ar    1  UNL1        0.0204
     23 C          64.0929   82.9723   10.0330 C.ar    1  UNL1        0.0989
     24 N          63.5294   82.9264   11.4224 N.ar    1  UNL1       -0.2426
     25 C          62.6108   84.0138   11.8953 C.ar    1  UNL1        0.0962
@<TRIPOS>BOND
     1    15    16    1
     2    16    17    2
     3    16    18   am
     4    18    19    1
     5    19    20    1
     6    20    21   ar
     7    21    22   ar
     8    22    23   ar
     9    23    24   ar
    10    24    25   ar
    11    18     1    1
    12     1     2   ar
    13     2     3   ar
    14     3     4   ar
    15     4     8    1
    16     8     9   ar
    17     9    10   ar
    18    10    11   ar
    19    11    12    1
    20    11    13   ar
    21    13    14   ar
    22     4     5   ar
    23     5     6   ar
    24     6     7    1
    25    25    20   ar
    26     6     1   ar
    27    14     8   ar
@<TRIPOS>MOLECULE
*****
 25 27 0 0 0
SMALL
GASTEIGER

@<TRIPOS>ATOM
      1 C          62.8697   89.4821   12.0721 C.ar    1  UNL1        0.0816
      2 C          63.5052   88.8830   13.2916 C.ar    1  UNL1        0.0172
      3 C          64.6030   89.6172   14.0027 C.ar    1  UNL1        0.0014
      4 C          65.0654   90.9505   13.4942 C.ar    1  UNL1        0.0023
      5 C          64.4299   91.5497   12.2748 C.ar    1  UNL1        0.0309
      6 C          63.3321   90.8155   11.5637 C.ar    1  UNL1        0.1537
      7 F          62.6965   91.4146   10.3442 F       1  UNL1       -0.2029
      8 C          66.1633   91.6848   14.2054 C.ar    1  UNL1        0.0002
      9 C          67.5085   91.8322   13.5584 C.ar    1  UNL1        0.0023
     10 C          68.6063   92.5664   14.2695 C.ar    1  UNL1        0.0296
     11 C          68.3589   93.1531   15.6276 C.ar    1  UNL1        0.1401
     12 F          69.4568   93.8873   16.3388 F       1  UNL1       -0.2042
     13 C          67.0137   93.0057   16.2746 C.ar    1  UNL1        0.0296
     14 C          65.9159   92.2715   15.5635 C.ar    1  UNL1        0.0023
     15 C          60.0311   89.7623   13.0014 C.3     1  UNL1        0.0952
     16 C          60.3525   88.8880   11.8256 C.2     1  UNL1        0.2302
     17 O          59.2546   88.1539   11.1146 O.2     1  UNL1       -0.2745
     18 N          61.7718   88.7479   11.3610 N.am    1  UNL1       -0.2522
     19 C          62.0933   87.8737   10.1853 C.3     1  UNL1        0.1263
     20 C          61.0692   87.6547    9.1113 C.ar    1  UNL1        0.0172
     21 C          60.3791   88.8286    8.4824 C.ar    1  UNL1        0.0005
     22 C          59.3551   88.6096    7.4085 C.ar    1  UNL1        0.0204
     23 C          59.0213   87.2166    6.9633 C.ar    1  UNL1        0.0989
     24 N          59.7115   86.0427    7.5921 N.ar    1  UNL1       -0.2426
     25 C          60.7354   86.2617    8.6661 C.ar    1  UNL1        0.0962
@<TRIPOS>BOND
     1    15    16    1
     2    16    17    2
     3    16    18   am
     4    18    19    1
     5    19    20    1
     6    20    21   ar
     7    21    22   ar
     8    22    23   ar
     9    23    24   ar
    10    24    25   ar
    11    18     1    1
    12     1     2   ar
    13     2     3   ar
    14     3     4   ar
    15     4     8    1
    16     8     9   ar
    17     9    10   ar
    18    10    11   ar
    19    11    12    1
    20    11    13   ar
    21    13    14   ar
    22     4     5   ar
    23     5     6   ar
    24     6     7    1
    25    25    20   ar
    26     6     1   ar
    27    14     8   ar
