@<TRIPOS>MOLECULE
*****
 44 49 0 0 0
SMALL
GASTEIGER

@<TRIPOS>ATOM
      1 C          60.0789   89.1428    7.1891 C.2     1  UNL1        0.3752
      2 N          60.8999   89.9000    6.1879 N.2     1  UNL1       -0.0308
      3 C          59.9680   90.7358    5.3614 C.2     1  UNL1        0.2333
      4 C          60.2110   91.6849    4.2256 C.2     1  UNL1        0.0645
      5 C          59.0570   92.3933    3.5803 C.2     1  UNL1        0.0506
      6 C          57.6601   92.1526    4.0707 C.2     1  UNL1       -0.0025
      7 C          57.4171   91.2035    5.2065 C.3     1  UNL1        0.1050
      8 C          58.5710   90.4951    5.8519 C.2     1  UNL1        0.2179
      9 N          58.6396   89.5105    6.9815 N.2     1  UNL1       -0.0347
     10 C          61.6569   86.2718   10.2742 C.ar    1  UNL1       -0.0225
     11 C          61.7321   87.7500   10.5174 C.ar    1  UNL1       -0.0040
     12 C          61.2061   88.7070    9.4890 C.ar    1  UNL1        0.0074
     13 C          60.6049   88.1858    8.2175 C.ar    1  UNL1        0.0884
     14 C          60.5297   86.7076    7.9743 C.ar    1  UNL1        0.0074
     15 C          61.0557   85.7506    9.0027 C.ar    1  UNL1       -0.0040
     16 C          63.2348   83.4009   13.3593 C.3     1  UNL1        0.0056
     17 C          63.1451   84.8648   13.6736 C.3     1  UNL1        0.0007
     18 C          62.6191   85.8218   12.6452 C.3     1  UNL1        0.0044
     19 C          62.1828   85.3148   11.3026 C.3     1  UNL1        0.0223
     20 C          62.2726   83.8509   10.9883 C.3     1  UNL1        0.0044
     21 C          62.7986   82.8939   12.0167 C.3     1  UNL1        0.0007
     22 C          63.7608   82.4439   14.3877 C.3     1  UNL1        0.0417
     23 O          64.1544   79.8771   14.4701 O.co2   1  UNL1       -0.5492
     24 C          63.2168   81.0479   14.4608 C.2     1  UNL1        0.0503
     25 O          61.7351   80.8228   14.5248 O.co2   1  UNL1       -0.5492
     26 N          59.3000   93.3425    2.4444 N.am    1  UNL1       -0.2792
     27 C          60.5388   93.2110    1.6090 C.2     1  UNL1        0.2703
     28 O          61.5348   92.1302    1.9095 O.2     1  UNL1       -0.2681
     29 H          58.6463   94.0518    2.2472 H       1  UNL1        0.1552
     30 C          60.7818   94.1601    0.4732 C.ar    1  UNL1        0.1763
     31 N          59.9093   94.3310   -0.7349 N.ar    1  UNL1       -0.2037
     32 C          60.5282   95.3815   -1.6087 C.ar    1  UNL1        0.2298
     33 O          61.7832   95.8598   -0.9406 O.2     1  UNL1       -0.4304
     34 C          61.9399   95.1049    0.3461 C.ar    1  UNL1        0.2404
     35 C          59.9871   95.8682   -2.9203 C.ar    1  UNL1        0.0536
     36 C          58.5055   95.9143   -3.1497 C.ar    1  UNL1        0.0046
     37 C          57.9643   96.4010   -4.4613 C.ar    1  UNL1        0.0002
     38 C          58.9049   96.8417   -5.5435 C.ar    1  UNL1        0.0000
     39 C          60.3865   96.7956   -5.3141 C.ar    1  UNL1        0.0002
     40 C          60.9276   96.3088   -4.0025 C.ar    1  UNL1        0.0046
     41 C          63.0584   95.2664    1.3324 C.3     1  UNL1        0.4528
     42 F          64.1769   95.4280    2.3188 F       1  UNL1       -0.1631
     43 F          62.2987   96.3658    2.0138 F       1  UNL1       -0.1631
     44 F          63.8181   94.1670    0.6511 F       1  UNL1       -0.1631
@<TRIPOS>UNITY_ATOM_ATTR
23 1
charge -1
@<TRIPOS>BOND
     1    23    24   ar
     2    24    25   ar
     3    24    22    1
     4    22    16    1
     5    16    17    1
     6    17    18    1
     7    18    19    1
     8    19    10    1
     9    10    11   ar
    10    11    12   ar
    11    12    13   ar
    12    13     1    1
    13     1     2    2
    14     2     3    1
    15     3     4    2
    16     4     5    1
    17     5    26    1
    18    26    27   am
    19    27    28    2
    20    27    30    1
    21    30    31   ar
    22    31    32   ar
    23    32    35    1
    24    35    36   ar
    25    36    37   ar
    26    37    38   ar
    27    38    39   ar
    28    39    40   ar
    29    32    33   ar
    30    33    34   ar
    31    34    41    1
    32    41    42    1
    33    41    43    1
    34    41    44    1
    35     5     6    2
    36     6     7    1
    37     7     8    1
    38     8     9    2
    39    13    14   ar
    40    14    15   ar
    41    19    20    1
    42    20    21    1
    43    21    16    1
    44    15    10   ar
    45     9     1    1
    46     8     3    1
    47    34    30   ar
    48    40    35   ar
    49    26    29    1
@<TRIPOS>MOLECULE
*****
 44 49 0 0 0
SMALL
GASTEIGER

@<TRIPOS>ATOM
      1 C          60.0885   89.3048    6.9778 C.2     1  UNL1        0.3752
      2 N          60.9625   89.9995    5.9761 N.2     1  UNL1       -0.0308
      3 C          60.0888   90.8723    5.1248 C.2     1  UNL1        0.2333
      4 C          60.3981   91.7883    3.9780 C.2     1  UNL1        0.0645
      5 C          59.2933   92.5490    3.3067 C.2     1  UNL1        0.0506
      6 C          57.8792   92.3938    3.7822 C.2     1  UNL1       -0.0025
      7 C          57.5698   91.4777    4.9290 C.3     1  UNL1        0.1050
      8 C          58.6746   90.7170    5.6003 C.2     1  UNL1        0.2179
      9 N          58.6745   89.7482    6.7455 N.2     1  UNL1       -0.0347
     10 C          61.4663   86.4005   10.1268 C.ar    1  UNL1       -0.0225
     11 C          61.6488   87.8747   10.3349 C.ar    1  UNL1       -0.0040
     12 C          61.1895   88.8428    9.2853 C.ar    1  UNL1        0.0074
     13 C          60.5478   88.3367    8.0275 C.ar    1  UNL1        0.0884
     14 C          60.3653   86.8625    7.8194 C.ar    1  UNL1        0.0074
     15 C          60.8246   85.8944    8.8691 C.ar    1  UNL1       -0.0040
     16 C          62.8442   83.4961   13.2759 C.3     1  UNL1        0.0056
     17 C          62.6711   83.0386   11.8579 C.3     1  UNL1        0.0007
     18 C          62.2118   84.0068   10.8082 C.3     1  UNL1        0.0044
     19 C          61.9256   85.4324   11.1765 C.3     1  UNL1        0.0223
     20 C          62.0986   85.8898   12.5945 C.3     1  UNL1        0.0044
     21 C          62.5579   84.9217   13.6442 C.3     1  UNL1        0.0007
     22 C          63.3034   82.5280   14.3255 C.3     1  UNL1        0.0417
     23 O          63.6555   79.9565   14.4419 O.co2   1  UNL1       -0.5492
     24 C          62.7367   81.1398   14.3649 C.2     1  UNL1        0.0503
     25 O          61.2513   80.9347   14.3272 O.co2   1  UNL1       -0.5492
     26 N          59.6026   93.4651    2.1599 N.am    1  UNL1       -0.2792
     27 C          60.3849   92.9580    0.9848 C.2     1  UNL1        0.2703
     28 O          60.8579   91.5347    0.9565 O.2     1  UNL1       -0.2681
     29 H          59.2922   94.3992    2.1784 H       1  UNL1        0.1552
     30 C          60.6942   93.8740   -0.1620 C.ar    1  UNL1        0.1763
     31 N          62.0595   94.1798   -0.7027 N.ar    1  UNL1       -0.2037
     32 C          61.9017   95.1398   -1.8443 C.ar    1  UNL1        0.2298
     33 O          60.4387   95.4274   -2.0093 O.2     1  UNL1       -0.4304
     34 C          59.6925   94.6451   -0.9695 C.ar    1  UNL1        0.2404
     35 C          63.0118   95.7119   -2.6752 C.ar    1  UNL1        0.0536
     36 C          64.2958   96.1327   -2.0239 C.ar    1  UNL1        0.0046
     37 C          65.4060   96.7048   -2.8547 C.ar    1  UNL1        0.0002
     38 C          65.2321   96.8560   -4.3370 C.ar    1  UNL1        0.0000
     39 C          63.9481   96.4352   -4.9883 C.ar    1  UNL1        0.0002
     40 C          62.8379   95.8631   -4.1574 C.ar    1  UNL1        0.0046
     41 C          58.2056   94.6355   -0.7720 C.3     1  UNL1        0.4528
     42 F          56.7187   94.6260   -0.5744 F       1  UNL1       -0.1631
     43 F          58.1331   93.2680   -1.3839 F       1  UNL1       -0.1631
     44 F          58.2781   96.0031   -0.1600 F       1  UNL1       -0.1631
@<TRIPOS>UNITY_ATOM_ATTR
23 1
charge -1
@<TRIPOS>BOND
     1    23    24   ar
     2    24    25   ar
     3    24    22    1
     4    22    16    1
     5    16    17    1
     6    17    18    1
     7    18    19    1
     8    19    10    1
     9    10    11   ar
    10    11    12   ar
    11    12    13   ar
    12    13     1    1
    13     1     2    2
    14     2     3    1
    15     3     4    2
    16     4     5    1
    17     5    26    1
    18    26    27   am
    19    27    28    2
    20    27    30    1
    21    30    31   ar
    22    31    32   ar
    23    32    35    1
    24    35    36   ar
    25    36    37   ar
    26    37    38   ar
    27    38    39   ar
    28    39    40   ar
    29    32    33   ar
    30    33    34   ar
    31    34    41    1
    32    41    42    1
    33    41    43    1
    34    41    44    1
    35     5     6    2
    36     6     7    1
    37     7     8    1
    38     8     9    2
    39    13    14   ar
    40    14    15   ar
    41    19    20    1
    42    20    21    1
    43    21    16    1
    44    15    10   ar
    45     9     1    1
    46     8     3    1
    47    34    30   ar
    48    40    35   ar
    49    26    29    1
@<TRIPOS>MOLECULE
*****
 44 49 0 0 0
SMALL
GASTEIGER

@<TRIPOS>ATOM
      1 C          61.3378   92.5175    2.3805 C.2     1  UNL1        0.3752
      2 N          61.9751   91.5556    3.3388 N.2     1  UNL1       -0.0308
      3 C          60.9567   91.1944    4.3792 C.2     1  UNL1        0.2333
      4 C          61.0192   90.2883    5.5729 C.2     1  UNL1        0.0645
      5 C          59.8148   90.1209    6.4512 C.2     1  UNL1        0.0506
      6 C          58.5480   90.8597    6.1358 C.2     1  UNL1       -0.0025
      7 C          58.4855   91.7658    4.9421 C.3     1  UNL1        0.1050
      8 C          59.6899   91.9331    4.0638 C.2     1  UNL1        0.2179
      9 N          59.9254   92.7508    2.8285 N.2     1  UNL1       -0.0347
     10 C          63.3156   94.3769   -1.2086 C.ar    1  UNL1       -0.0225
     11 C          61.9215   93.8342   -1.3176 C.ar    1  UNL1       -0.0040
     12 C          61.2622   93.2144   -0.1213 C.ar    1  UNL1        0.0074
     13 C          61.9971   93.1373    1.1841 C.ar    1  UNL1        0.0884
     14 C          63.3912   93.6800    1.2931 C.ar    1  UNL1        0.0074
     15 C          64.0504   94.2998    0.0968 C.ar    1  UNL1       -0.0040
     16 C          65.2934   96.2362   -4.7976 C.3     1  UNL1        0.0056
     17 C          64.4636   94.9969   -4.9566 C.3     1  UNL1        0.0007
     18 C          63.8043   94.3771   -3.7603 C.3     1  UNL1        0.0044
     19 C          63.9749   94.9967   -2.4049 C.3     1  UNL1        0.0223
     20 C          64.8047   96.2360   -2.2459 C.3     1  UNL1        0.0044
     21 C          65.4640   96.8558   -3.4423 C.3     1  UNL1        0.0007
     22 C          65.9527   96.8560   -5.9939 C.3     1  UNL1        0.0417
     23 O          68.4835   96.6139   -6.5290 O.co2   1  UNL1       -0.5492
     24 C          67.0702   96.1378   -6.6905 C.2     1  UNL1        0.0503
     25 O          66.7745   94.9436   -7.5487 O.co2   1  UNL1       -0.5492
     26 N          59.8773   89.2148    7.6450 N.am    1  UNL1       -0.2792
     27 C          60.9432   89.4125    8.6817 C.2     1  UNL1        0.2703
     28 O          61.9466   90.5164    8.5246 O.2     1  UNL1       -0.2681
     29 H          59.2187   88.4903    7.7481 H       1  UNL1        0.1552
     30 C          61.0056   88.5065    9.8755 C.ar    1  UNL1        0.1763
     31 N          61.7564   87.2107    9.9605 N.ar    1  UNL1       -0.2037
     32 C          61.5431   86.6404   11.3314 C.ar    1  UNL1        0.2298
     33 O          60.6605   87.5838   12.0937 O.2     1  UNL1       -0.4304
     34 C          60.3283   88.7371   11.1939 C.ar    1  UNL1        0.2404
     35 C          62.1125   85.3529   11.8491 C.ar    1  UNL1        0.0536
     36 C          62.3831   85.1883   13.3153 C.ar    1  UNL1        0.0046
     37 C          62.9525   83.9008   13.8331 C.ar    1  UNL1        0.0002
     38 C          63.2512   82.7777   12.8846 C.ar    1  UNL1        0.0000
     39 C          62.9805   82.9423   11.4184 C.ar    1  UNL1        0.0002
     40 C          62.4111   84.2298   10.9007 C.ar    1  UNL1        0.0046
     41 C          59.4696   89.9143   11.5499 C.3     1  UNL1        0.4528
     42 F          58.6109   91.0915   11.9060 F       1  UNL1       -0.1631
     43 F          58.3504   88.9863   11.9189 F       1  UNL1       -0.1631
     44 F          60.5888   90.8423   11.1810 F       1  UNL1       -0.1631
@<TRIPOS>UNITY_ATOM_ATTR
23 1
charge -1
@<TRIPOS>BOND
     1    23    24   ar
     2    24    25   ar
     3    24    22    1
     4    22    16    1
     5    16    17    1
     6    17    18    1
     7    18    19    1
     8    19    10    1
     9    10    11   ar
    10    11    12   ar
    11    12    13   ar
    12    13     1    1
    13     1     2    2
    14     2     3    1
    15     3     4    2
    16     4     5    1
    17     5    26    1
    18    26    27   am
    19    27    28    2
    20    27    30    1
    21    30    31   ar
    22    31    32   ar
    23    32    35    1
    24    35    36   ar
    25    36    37   ar
    26    37    38   ar
    27    38    39   ar
    28    39    40   ar
    29    32    33   ar
    30    33    34   ar
    31    34    41    1
    32    41    42    1
    33    41    43    1
    34    41    44    1
    35     5     6    2
    36     6     7    1
    37     7     8    1
    38     8     9    2
    39    13    14   ar
    40    14    15   ar
    41    19    20    1
    42    20    21    1
    43    21    16    1
    44    15    10   ar
    45     9     1    1
    46     8     3    1
    47    34    30   ar
    48    40    35   ar
    49    26    29    1
