@<TRIPOS>MOLECULE
*****
 28 31 0 0 0
SMALL
GASTEIGER

@<TRIPOS>ATOM
      1 N          63.6641   85.5706   15.2685 N.pl3   1  UNL1       -0.3077
      2 C          63.0885   84.8299   16.4390 C.3     1  UNL1        0.0911
      3 C          62.5593   85.5884   17.6198 C.3     1  UNL1        0.0261
      4 C          62.6056   87.0877   17.6303 C.3     1  UNL1        0.0295
      5 C          63.1812   87.8284   16.4598 C.ar    1  UNL1       -0.0054
      6 C          63.2276   89.3276   16.4703 C.ar    1  UNL1        0.0371
      7 C          63.8032   90.0684   15.2998 C.ar    1  UNL1        0.1354
      8 C          64.3325   89.3098   14.1189 C.ar    1  UNL1        0.0414
      9 C          64.2861   87.8106   14.1085 C.ar    1  UNL1        0.0177
     10 C          63.7105   87.0699   15.2790 C.ar    1  UNL1        0.0440
     11 N          63.8495   91.5676   15.3103 N.pl3   1  UNL1       -0.1990
     12 H          63.1486   92.0850   14.8517 H       1  UNL1        0.2985
     13 C          64.9638   92.2786   16.0194 C.2     1  UNL1        0.3224
     14 N          64.7063   92.9530   17.3342 N.2     1  UNL1       -0.0985
     15 H          63.8059   92.9289   17.7318 H       1  UNL1        0.3633
     16 C          66.3355   92.3152   15.4137 C.ar    1  UNL1        0.1114
     17 C          66.6839   91.9630   13.9978 C.ar    1  UNL1        0.0144
     18 C          68.1634   92.1406   13.8265 C.ar    1  UNL1        0.0077
     19 C          68.7296   92.6026   15.1365 C.ar    1  UNL1        0.0357
     20 S          67.5998   92.7105   16.1174 S.2     1  UNL1       -0.0792
     21 C          64.1934   84.8121   14.0876 C.3     1  UNL1        0.0921
     22 C          63.2469   84.2780   13.0538 C.3     1  UNL1        0.0374
     23 C          63.8708   82.1948   10.6206 C.3     1  UNL1        0.0896
     24 N          63.1911   81.8603   11.9152 N.3     1  UNL1       -0.2727
     25 C          62.6788   80.5095   12.3187 C.3     1  UNL1        0.0721
     26 C          62.0754   80.6321   13.6865 C.3     1  UNL1        0.0187
     27 C          62.2148   82.0587   14.1283 C.3     1  UNL1        0.0174
     28 C          62.9043   82.8178   13.0336 C.3     1  UNL1        0.0593
@<TRIPOS>BOND
     1    23    24    1
     2    24    25    1
     3    25    26    1
     4    26    27    1
     5    27    28    1
     6    28    22    1
     7    22    21    1
     8    21     1    1
     9     1     2    1
    10     2     3    1
    11     3     4    1
    12     4     5    1
    13     5     6   ar
    14     6     7   ar
    15     7    11    1
    16    11    13    1
    17    13    14    2
    18    13    16    1
    19    16    17   ar
    20    17    18   ar
    21    18    19   ar
    22    19    20   ar
    23     7     8   ar
    24     8     9   ar
    25     9    10   ar
    26    28    24    1
    27    10     1    1
    28    10     5   ar
    29    20    16   ar
    30    11    12    1
    31    14    15    1
@<TRIPOS>MOLECULE
*****
 28 31 0 0 0
SMALL
GASTEIGER

@<TRIPOS>ATOM
      1 N          65.5929   92.1165   13.1244 N.pl3   1  UNL1       -0.3077
      2 C          65.7478   91.7864   14.5794 C.3     1  UNL1        0.0911
      3 C          64.7559   90.8857   15.2538 C.3     1  UNL1        0.0261
      4 C          63.6092   90.3150   14.4732 C.3     1  UNL1        0.0295
      5 C          63.4543   90.6451   13.0182 C.ar    1  UNL1       -0.0054
      6 C          62.3075   90.0744   12.2376 C.ar    1  UNL1        0.0371
      7 C          62.1526   90.4045   10.7827 C.ar    1  UNL1        0.1354
      8 C          63.1445   91.3053   10.1082 C.ar    1  UNL1        0.0414
      9 C          64.2913   91.8760   10.8888 C.ar    1  UNL1        0.0177
     10 C          64.4461   91.5458   12.3438 C.ar    1  UNL1        0.0440
     11 N          61.0059   89.8339   10.0021 N.pl3   1  UNL1       -0.1990
     12 H          60.5528   90.3819    9.3212 H       1  UNL1        0.2985
     13 C          60.5495   88.4283   10.2589 C.2     1  UNL1        0.3224
     14 N          59.6954   88.1236   11.4537 N.2     1  UNL1       -0.0985
     15 H          59.4344   88.8462   12.0693 H       1  UNL1        0.3633
     16 C          60.9472   87.3274    9.3209 C.ar    1  UNL1        0.1114
     17 C          62.2695   86.6195    9.3024 C.ar    1  UNL1        0.0144
     18 C          62.2320   85.5957    8.2067 C.ar    1  UNL1        0.0077
     19 C          60.8865   85.6708    7.5481 C.ar    1  UNL1        0.0357
     20 S          60.0925   86.7411    8.2366 S.2     1  UNL1       -0.0792
     21 C          66.5848   93.0173   12.4500 C.3     1  UNL1        0.0921
     22 C          66.2249   94.4439   12.1580 C.3     1  UNL1        0.0374
     23 C          67.7240   92.9461    9.6764 C.3     1  UNL1        0.0896
     24 N          67.3976   94.4080    9.7563 N.3     1  UNL1       -0.2727
     25 C          67.7030   95.4380    8.7096 C.3     1  UNL1        0.0721
     26 C          67.2026   96.7632    9.2033 C.3     1  UNL1        0.0187
     27 C          66.5880   96.5520   10.5552 C.3     1  UNL1        0.0174
     28 C          66.7085   95.0964   10.8970 C.3     1  UNL1        0.0593
@<TRIPOS>BOND
     1    23    24    1
     2    24    25    1
     3    25    26    1
     4    26    27    1
     5    27    28    1
     6    28    22    1
     7    22    21    1
     8    21     1    1
     9     1     2    1
    10     2     3    1
    11     3     4    1
    12     4     5    1
    13     5     6   ar
    14     6     7   ar
    15     7    11    1
    16    11    13    1
    17    13    14    2
    18    13    16    1
    19    16    17   ar
    20    17    18   ar
    21    18    19   ar
    22    19    20   ar
    23     7     8   ar
    24     8     9   ar
    25     9    10   ar
    26    28    24    1
    27    10     1    1
    28    10     5   ar
    29    20    16   ar
    30    11    12    1
    31    14    15    1
@<TRIPOS>MOLECULE
*****
 28 31 0 0 0
SMALL
GASTEIGER

@<TRIPOS>ATOM
      1 N          62.8900   89.6609   11.6789 N.pl3   1  UNL1       -0.3077
      2 C          62.1738   89.6119   10.3619 C.3     1  UNL1        0.0911
      3 C          61.7862   88.2903    9.7677 C.3     1  UNL1        0.0261
      4 C          62.1149   87.0177   10.4905 C.3     1  UNL1        0.0295
      5 C          62.8311   87.0667   11.8075 C.ar    1  UNL1       -0.0054
      6 C          63.1597   85.7941   12.5304 C.ar    1  UNL1        0.0371
      7 C          63.8760   85.8431   13.8474 C.ar    1  UNL1        0.1354
      8 C          64.2636   87.1647   14.4416 C.ar    1  UNL1        0.0414
      9 C          63.9349   88.4373   13.7188 C.ar    1  UNL1        0.0177
     10 C          63.2187   88.3883   12.4017 C.ar    1  UNL1        0.0440
     11 N          64.2046   84.5705   14.5702 N.pl3   1  UNL1       -0.1990
     12 H          65.1410   84.3524   14.7821 H       1  UNL1        0.2985
     13 C          63.1066   83.6301   14.9703 C.2     1  UNL1        0.3224
     14 N          62.2777   83.9191   16.1865 N.2     1  UNL1       -0.0985
     15 H          62.4544   84.7260   16.7223 H       1  UNL1        0.3633
     16 C          62.8375   82.4008   14.1540 C.ar    1  UNL1        0.1114
     17 C          61.7486   81.3992   14.4012 C.ar    1  UNL1        0.0144
     18 C          61.8481   80.3366   13.3473 C.ar    1  UNL1        0.0077
     19 C          62.9985   80.6814   12.4486 C.ar    1  UNL1        0.0357
     20 S          63.6100   81.9571   12.9472 S.2     1  UNL1       -0.0792
     21 C          63.2776   90.9825   12.2732 C.3     1  UNL1        0.0921
     22 C          64.6144   91.5844   11.9557 C.3     1  UNL1        0.0374
     23 C          66.2458   94.4084   11.8421 C.3     1  UNL1        0.0896
     24 N          66.2074   93.4584   13.0022 N.3     1  UNL1       -0.2727
     25 C          66.9123   93.6397   14.3139 C.3     1  UNL1        0.0721
     26 C          66.5980   92.4536   15.1768 C.3     1  UNL1        0.0187
     27 C          65.6990   91.5393   14.3984 C.3     1  UNL1        0.0174
     28 C          65.4576   92.1603   13.0545 C.3     1  UNL1        0.0593
@<TRIPOS>BOND
     1    23    24    1
     2    24    25    1
     3    25    26    1
     4    26    27    1
     5    27    28    1
     6    28    22    1
     7    22    21    1
     8    21     1    1
     9     1     2    1
    10     2     3    1
    11     3     4    1
    12     4     5    1
    13     5     6   ar
    14     6     7   ar
    15     7    11    1
    16    11    13    1
    17    13    14    2
    18    13    16    1
    19    16    17   ar
    20    17    18   ar
    21    18    19   ar
    22    19    20   ar
    23     7     8   ar
    24     8     9   ar
    25     9    10   ar
    26    28    24    1
    27    10     1    1
    28    10     5   ar
    29    20    16   ar
    30    11    12    1
    31    14    15    1
@<TRIPOS>MOLECULE
*****
 28 31 0 0 0
SMALL
GASTEIGER

@<TRIPOS>ATOM
      1 N          61.4969   86.9679   10.7812 N.pl3   1  UNL1       -0.3077
      2 C          60.6139   87.1251    9.5788 C.3     1  UNL1        0.0911
      3 C          60.4727   88.4663    8.9222 C.3     1  UNL1        0.0261
      4 C          61.2145   89.6503    9.4679 C.3     1  UNL1        0.0295
      5 C          62.0975   89.4932   10.6702 C.ar    1  UNL1       -0.0054
      6 C          62.8393   90.6773   11.2159 C.ar    1  UNL1        0.0371
      7 C          63.7223   90.5201   12.4182 C.ar    1  UNL1        0.1354
      8 C          63.8635   89.1789   13.0749 C.ar    1  UNL1        0.0414
      9 C          63.1217   87.9948   12.5292 C.ar    1  UNL1        0.0177
     10 C          62.2387   88.1520   11.3268 C.ar    1  UNL1        0.0440
     11 N          64.4640   91.7042   12.9638 N.pl3   1  UNL1       -0.1990
     12 H          64.7038   92.4515   12.3695 H       1  UNL1        0.2985
     13 C          64.8406   91.7496   14.4151 C.2     1  UNL1        0.3224
     14 N          63.8172   91.4348   15.4656 N.2     1  UNL1       -0.0985
     15 H          62.8985   91.1983   15.2025 H       1  UNL1        0.3633
     16 C          66.2404   92.1099   14.8158 C.ar    1  UNL1        0.1114
     17 C          66.6562   92.7056   16.1282 C.ar    1  UNL1        0.0144
     18 C          68.1430   92.9016   16.0980 C.ar    1  UNL1        0.0077
     19 C          68.6462   92.4271   14.7669 C.ar    1  UNL1        0.0357
     20 S          67.4703   91.9379   13.9745 S.2     1  UNL1       -0.0792
     21 C          61.6382   85.6267   11.4379 C.3     1  UNL1        0.0921
     22 C          62.7814   84.7281   11.0698 C.3     1  UNL1        0.0374
     23 C          64.2603   84.7174   13.9787 C.3     1  UNL1        0.0896
     24 N          63.7610   83.5118   13.2390 N.3     1  UNL1       -0.2727
     25 C          63.8538   82.0895   13.7066 C.3     1  UNL1        0.0721
     26 C          63.2313   81.2154   12.6585 C.3     1  UNL1        0.0187
     27 C          62.7539   82.0975   11.5431 C.3     1  UNL1        0.0174
     28 C          63.0812   83.5167   11.9019 C.3     1  UNL1        0.0593
@<TRIPOS>BOND
     1    23    24    1
     2    24    25    1
     3    25    26    1
     4    26    27    1
     5    27    28    1
     6    28    22    1
     7    22    21    1
     8    21     1    1
     9     1     2    1
    10     2     3    1
    11     3     4    1
    12     4     5    1
    13     5     6   ar
    14     6     7   ar
    15     7    11    1
    16    11    13    1
    17    13    14    2
    18    13    16    1
    19    16    17   ar
    20    17    18   ar
    21    18    19   ar
    22    19    20   ar
    23     7     8   ar
    24     8     9   ar
    25     9    10   ar
    26    28    24    1
    27    10     1    1
    28    10     5   ar
    29    20    16   ar
    30    11    12    1
    31    14    15    1
@<TRIPOS>MOLECULE
*****
 28 31 0 0 0
SMALL
GASTEIGER

@<TRIPOS>ATOM
      1 N          64.2249   91.3005   12.1246 N.pl3   1  UNL1       -0.3077
      2 C          63.5870   91.5858   10.7973 C.3     1  UNL1        0.0911
      3 C          62.7839   90.5233   10.1074 C.3     1  UNL1        0.0261
      4 C          62.6187   89.1755   10.7448 C.3     1  UNL1        0.0295
      5 C          63.2566   88.8903   12.0720 C.ar    1  UNL1       -0.0054
      6 C          63.0913   87.5425   12.7094 C.ar    1  UNL1        0.0371
      7 C          63.7292   87.2572   14.0367 C.ar    1  UNL1        0.1354
      8 C          64.5324   88.3198   14.7267 C.ar    1  UNL1        0.0414
      9 C          64.6976   89.6676   14.0893 C.ar    1  UNL1        0.0177
     10 C          64.0597   89.9528   12.7620 C.ar    1  UNL1        0.0440
     11 N          63.5640   85.9095   14.6740 N.pl3   1  UNL1       -0.1990
     12 H          62.9173   85.7872   15.4062 H       1  UNL1        0.2985
     13 C          64.3839   84.7481   14.1958 C.2     1  UNL1        0.3224
     14 N          65.8497   84.6859   14.5079 N.2     1  UNL1       -0.0985
     15 H          66.2736   85.4073   15.0266 H       1  UNL1        0.3633
     16 C          63.7381   83.6489   13.4055 C.ar    1  UNL1        0.1114
     17 C          64.0254   83.3063   11.9737 C.ar    1  UNL1        0.0144
     18 C          63.1564   82.1450   11.5915 C.ar    1  UNL1        0.0077
     19 C          62.3320   81.7697   12.7871 C.ar    1  UNL1        0.0357
     20 S          62.6915   82.6992   13.9082 S.2     1  UNL1       -0.0792
     21 C          65.0281   92.3631   12.8146 C.3     1  UNL1        0.0921
     22 C          66.5104   92.4415   12.5989 C.3     1  UNL1        0.0374
     23 C          66.1932   95.4369   11.3435 C.3     1  UNL1        0.0896
     24 N          66.9070   94.2836   10.7031 N.3     1  UNL1       -0.2727
     25 C          67.6003   94.3046    9.3731 C.3     1  UNL1        0.0721
     26 C          68.1747   92.9407    9.1281 C.3     1  UNL1        0.0187
     27 C          67.8362   92.0768   10.3067 C.3     1  UNL1        0.0174
     28 C          67.0528   92.9067   11.2801 C.3     1  UNL1        0.0593
@<TRIPOS>BOND
     1    23    24    1
     2    24    25    1
     3    25    26    1
     4    26    27    1
     5    27    28    1
     6    28    22    1
     7    22    21    1
     8    21     1    1
     9     1     2    1
    10     2     3    1
    11     3     4    1
    12     4     5    1
    13     5     6   ar
    14     6     7   ar
    15     7    11    1
    16    11    13    1
    17    13    14    2
    18    13    16    1
    19    16    17   ar
    20    17    18   ar
    21    18    19   ar
    22    19    20   ar
    23     7     8   ar
    24     8     9   ar
    25     9    10   ar
    26    28    24    1
    27    10     1    1
    28    10     5   ar
    29    20    16   ar
    30    11    12    1
    31    14    15    1
@<TRIPOS>MOLECULE
*****
 28 31 0 0 0
SMALL
GASTEIGER

@<TRIPOS>ATOM
      1 N          61.4975   87.0737   10.8251 N.pl3   1  UNL1       -0.3077
      2 C          60.5630   87.0055    9.6537 C.3     1  UNL1        0.0911
      3 C          60.3187   88.2263    8.8172 C.3     1  UNL1        0.0261
      4 C          61.0088   89.5154    9.1520 C.3     1  UNL1        0.0295
      5 C          61.9432   89.5836   10.3234 C.ar    1  UNL1       -0.0054
      6 C          62.6333   90.8727   10.6582 C.ar    1  UNL1        0.0371
      7 C          63.5678   90.9409   11.8295 C.ar    1  UNL1        0.1354
      8 C          63.8122   89.7200   12.6661 C.ar    1  UNL1        0.0414
      9 C          63.1221   88.4309   12.3313 C.ar    1  UNL1        0.0177
     10 C          62.1876   88.3628   11.1599 C.ar    1  UNL1        0.0440
     11 N          64.2579   92.2299   12.1644 N.pl3   1  UNL1       -0.1990
     12 H          63.7278   93.0403   12.3419 H       1  UNL1        0.2985
     13 C          65.7555   92.2842   12.2286 C.2     1  UNL1        0.3224
     14 N          66.4703   91.8231   13.4640 N.2     1  UNL1       -0.0985
     15 H          65.9566   91.4848   14.2327 H       1  UNL1        0.3633
     16 C          66.5382   92.7997   11.0574 C.ar    1  UNL1        0.1114
     17 C          67.6756   92.0958   10.3786 C.ar    1  UNL1        0.0144
     18 C          68.1614   92.9706    9.2611 C.ar    1  UNL1        0.0077
     19 C          67.3242   94.2151    9.2492 C.ar    1  UNL1        0.0357
     20 S          66.3210   94.1095   10.3595 S.2     1  UNL1       -0.0792
     21 C          61.7419   85.8528   11.6617 C.3     1  UNL1        0.0921
     22 C          62.7580   84.8380   11.2285 C.3     1  UNL1        0.0374
     23 C          64.2211   84.8279   14.1454 C.3     1  UNL1        0.0896
     24 N          63.6940   83.6259   13.4192 N.3     1  UNL1       -0.2727
     25 C          63.7470   82.2082   13.9064 C.3     1  UNL1        0.0721
     26 C          63.1071   81.3365   12.8666 C.3     1  UNL1        0.0187
     27 C          62.6588   82.2156   11.7370 C.3     1  UNL1        0.0174
     28 C          63.0215   83.6305   12.0785 C.3     1  UNL1        0.0593
@<TRIPOS>BOND
     1    23    24    1
     2    24    25    1
     3    25    26    1
     4    26    27    1
     5    27    28    1
     6    28    22    1
     7    22    21    1
     8    21     1    1
     9     1     2    1
    10     2     3    1
    11     3     4    1
    12     4     5    1
    13     5     6   ar
    14     6     7   ar
    15     7    11    1
    16    11    13    1
    17    13    14    2
    18    13    16    1
    19    16    17   ar
    20    17    18   ar
    21    18    19   ar
    22    19    20   ar
    23     7     8   ar
    24     8     9   ar
    25     9    10   ar
    26    28    24    1
    27    10     1    1
    28    10     5   ar
    29    20    16   ar
    30    11    12    1
    31    14    15    1
@<TRIPOS>MOLECULE
*****
 28 31 0 0 0
SMALL
GASTEIGER

@<TRIPOS>ATOM
      1 N          63.5319   85.6125   15.1381 N.pl3   1  UNL1       -0.3077
      2 C          63.0284   84.8796   16.3462 C.3     1  UNL1        0.0911
      3 C          62.6172   85.6438   17.5696 C.3     1  UNL1        0.0261
      4 C          62.7093   87.1409   17.5849 C.3     1  UNL1        0.0295
      5 C          63.2127   87.8738   16.3769 C.ar    1  UNL1       -0.0054
      6 C          63.3049   89.3709   16.3923 C.ar    1  UNL1        0.0371
      7 C          63.8083   90.1037   15.1842 C.ar    1  UNL1        0.1354
      8 C          64.2196   89.3395   13.9607 C.ar    1  UNL1        0.0414
      9 C          64.1274   87.8424   13.9453 C.ar    1  UNL1        0.0177
     10 C          63.6240   87.1096   15.1535 C.ar    1  UNL1        0.0440
     11 N          63.9004   91.6008   15.1996 N.pl3   1  UNL1       -0.1990
     12 H          63.2389   92.1398   14.7085 H       1  UNL1        0.2985
     13 C          65.0004   92.2767   15.9632 C.2     1  UNL1        0.3224
     14 N          64.7101   92.9161   17.2886 N.2     1  UNL1       -0.0985
     15 H          63.7975   92.8921   17.6574 H       1  UNL1        0.3633
     16 C          66.3907   92.3133   15.4013 C.ar    1  UNL1        0.1114
     17 C          66.8137   91.7912   14.0602 C.ar    1  UNL1        0.0144
     18 C          68.2866   92.0337   13.9120 C.ar    1  UNL1        0.0077
     19 C          68.7738   92.7056   15.1614 C.ar    1  UNL1        0.0357
     20 S          67.6021   92.8784   16.0818 S.2     1  UNL1       -0.0792
     21 C          63.9432   84.8482   13.9146 C.3     1  UNL1        0.0921
     22 C          62.8997   84.2603   13.0116 C.3     1  UNL1        0.0374
     23 C          64.2592   83.0326   10.3109 C.3     1  UNL1        0.0896
     24 N          63.3530   84.2261   10.3776 N.3     1  UNL1       -0.2727
     25 C          62.9127   85.0648    9.2145 C.3     1  UNL1        0.0721
     26 C          62.0156   86.1476    9.7371 C.3     1  UNL1        0.0187
     27 C          61.9016   85.9779   11.2231 C.3     1  UNL1        0.0174
     28 C          62.7281   84.7904   11.6189 C.3     1  UNL1        0.0593
@<TRIPOS>BOND
     1    23    24    1
     2    24    25    1
     3    25    26    1
     4    26    27    1
     5    27    28    1
     6    28    22    1
     7    22    21    1
     8    21     1    1
     9     1     2    1
    10     2     3    1
    11     3     4    1
    12     4     5    1
    13     5     6   ar
    14     6     7   ar
    15     7    11    1
    16    11    13    1
    17    13    14    2
    18    13    16    1
    19    16    17   ar
    20    17    18   ar
    21    18    19   ar
    22    19    20   ar
    23     7     8   ar
    24     8     9   ar
    25     9    10   ar
    26    28    24    1
    27    10     1    1
    28    10     5   ar
    29    20    16   ar
    30    11    12    1
    31    14    15    1
@<TRIPOS>MOLECULE
*****
 28 31 0 0 0
SMALL
GASTEIGER

@<TRIPOS>ATOM
      1 N          61.6397   87.2520   11.0646 N.pl3   1  UNL1       -0.3077
      2 C          60.7288   87.2657    9.8729 C.3     1  UNL1        0.0911
      3 C          60.5749   88.5175    9.0609 C.3     1  UNL1        0.0261
      4 C          61.3318   89.7555    9.4406 C.3     1  UNL1        0.0295
      5 C          62.2427   89.7419   10.6323 C.ar    1  UNL1       -0.0054
      6 C          62.9996   90.9800   11.0120 C.ar    1  UNL1        0.0371
      7 C          63.9105   90.9663   12.2037 C.ar    1  UNL1        0.1354
      8 C          64.0644   89.7145   13.0157 C.ar    1  UNL1        0.0414
      9 C          63.3075   88.4764   12.6360 C.ar    1  UNL1        0.0177
     10 C          62.3966   88.4901   11.4443 C.ar    1  UNL1        0.0440
     11 N          64.6674   92.2044   12.5834 N.pl3   1  UNL1       -0.1990
     12 H          64.1845   92.9909   12.9261 H       1  UNL1        0.2985
     13 C          66.1601   92.2442   12.4408 C.2     1  UNL1        0.3224
     14 N          67.0340   91.8055   13.5782 N.2     1  UNL1       -0.0985
     15 H          66.6279   91.4914   14.4183 H       1  UNL1        0.3633
     16 C          66.7788   92.7227   11.1609 C.ar    1  UNL1        0.1114
     17 C          67.9242   92.0764   10.4396 C.ar    1  UNL1        0.0144
     18 C          68.2140   92.8857    9.2105 C.ar    1  UNL1        0.0077
     19 C          67.2477   94.0323    9.1720 C.ar    1  UNL1        0.0357
     20 S          66.3606   93.9315   10.3774 S.2     1  UNL1       -0.0792
     21 C          61.7936   86.0002   11.8766 C.3     1  UNL1        0.0921
     22 C          62.7541   84.9349   11.4377 C.3     1  UNL1        0.0374
     23 C          63.8979   82.0603   10.3995 C.3     1  UNL1        0.0896
     24 N          63.4743   82.3866   11.8010 N.3     1  UNL1       -0.2727
     25 C          63.5021   81.4487   12.9713 C.3     1  UNL1        0.0721
     26 C          62.9934   82.1904   14.1718 C.3     1  UNL1        0.0187
     27 C          62.6514   83.5866   13.7434 C.3     1  UNL1        0.0174
     28 C          62.9486   83.7079   12.2782 C.3     1  UNL1        0.0593
@<TRIPOS>BOND
     1    23    24    1
     2    24    25    1
     3    25    26    1
     4    26    27    1
     5    27    28    1
     6    28    22    1
     7    22    21    1
     8    21     1    1
     9     1     2    1
    10     2     3    1
    11     3     4    1
    12     4     5    1
    13     5     6   ar
    14     6     7   ar
    15     7    11    1
    16    11    13    1
    17    13    14    2
    18    13    16    1
    19    16    17   ar
    20    17    18   ar
    21    18    19   ar
    22    19    20   ar
    23     7     8   ar
    24     8     9   ar
    25     9    10   ar
    26    28    24    1
    27    10     1    1
    28    10     5   ar
    29    20    16   ar
    30    11    12    1
    31    14    15    1
@<TRIPOS>MOLECULE
*****
 28 31 0 0 0
SMALL
GASTEIGER

@<TRIPOS>ATOM
      1 N          63.4499   90.5965   12.9713 N.pl3   1  UNL1       -0.3077
      2 C          64.5320   91.5962   12.6894 C.3     1  UNL1        0.0911
      3 C          64.7192   92.1266   11.2989 C.3     1  UNL1        0.0261
      4 C          63.8243   91.6574   10.1903 C.3     1  UNL1        0.0295
      5 C          62.7421   90.6577   10.4723 C.ar    1  UNL1       -0.0054
      6 C          61.8472   90.1884    9.3638 C.ar    1  UNL1        0.0371
      7 C          60.7651   89.1887    9.6457 C.ar    1  UNL1        0.1354
      8 C          60.5778   88.6582   11.0363 C.ar    1  UNL1        0.0414
      9 C          61.4728   89.1274   12.1448 C.ar    1  UNL1        0.0177
     10 C          62.5550   90.1272   11.8628 C.ar    1  UNL1        0.0440
     11 N          59.8701   88.7194    8.5372 N.pl3   1  UNL1       -0.1990
     12 H          59.3796   89.3745    7.9898 H       1  UNL1        0.2985
     13 C          59.7224   87.2522    8.2626 C.2     1  UNL1        0.3224
     14 N          58.3586   86.6595    8.0662 N.2     1  UNL1       -0.0985
     15 H          57.5604   87.2335    8.1175 H       1  UNL1        0.3633
     16 C          60.9386   86.3777    8.1845 C.ar    1  UNL1        0.1114
     17 C          61.3084   85.4820    7.0395 C.ar    1  UNL1        0.0144
     18 C          62.5969   84.7960    7.3850 C.ar    1  UNL1        0.0077
     19 C          63.0234   85.2678    8.7434 C.ar    1  UNL1        0.0357
     20 S          61.9986   86.2453    9.2375 S.2     1  UNL1       -0.0792
     21 C          63.2627   90.0660   14.3619 C.3     1  UNL1        0.0921
     22 C          64.1757   88.9976   14.8862 C.3     1  UNL1        0.0374
     23 C          64.1978   85.7728   14.3869 C.3     1  UNL1        0.0896
     24 N          63.6584   86.4737   15.5984 N.3     1  UNL1       -0.2727
     25 C          63.0344   85.8154   16.7931 C.3     1  UNL1        0.0721
     26 C          62.6386   86.8908   17.7610 C.3     1  UNL1        0.0187
     27 C          63.0180   88.2138   17.1645 C.3     1  UNL1        0.0174
     28 C          63.6482   87.9560   15.8279 C.3     1  UNL1        0.0593
@<TRIPOS>BOND
     1    23    24    1
     2    24    25    1
     3    25    26    1
     4    26    27    1
     5    27    28    1
     6    28    22    1
     7    22    21    1
     8    21     1    1
     9     1     2    1
    10     2     3    1
    11     3     4    1
    12     4     5    1
    13     5     6   ar
    14     6     7   ar
    15     7    11    1
    16    11    13    1
    17    13    14    2
    18    13    16    1
    19    16    17   ar
    20    17    18   ar
    21    18    19   ar
    22    19    20   ar
    23     7     8   ar
    24     8     9   ar
    25     9    10   ar
    26    28    24    1
    27    10     1    1
    28    10     5   ar
    29    20    16   ar
    30    11    12    1
    31    14    15    1
