@<TRIPOS>MOLECULE
*****
 31 35 0 0 0
SMALL
GASTEIGER

@<TRIPOS>ATOM
      1 C          63.0177   90.4518   12.2291 C.3     1  UNL1        0.3201
      2 C          65.8292   92.3801   12.4370 C.3     1  UNL1        0.1489
      3 C          66.3475   92.5706   13.8318 C.3     1  UNL1        0.0672
      4 C          65.6360   91.9355   14.9895 C.3     1  UNL1        0.1543
      5 O          64.4063   91.1098   14.7526 O.3     1  UNL1       -0.2916
      6 P          63.8881   90.9193   13.3579 P.3     1  UNL1        0.3872
      7 O          62.8743   90.1218   14.1237 O.2     1  UNL1       -0.2539
      8 O          64.5996   91.5544   12.2001 O.3     1  UNL1       -0.2896
      9 C          66.9288   95.0604    9.7247 C.ar    1  UNL1        0.1385
     10 C          67.9636   94.2856    8.9638 C.ar    1  UNL1        0.0369
     11 C          68.2869   92.8756    9.3607 C.ar    1  UNL1        0.0029
     12 C          67.5755   92.2404   10.5184 C.ar    1  UNL1       -0.0017
     13 C          66.5407   93.0152   11.2793 C.ar    1  UNL1        0.0081
     14 C          66.2174   94.4252   10.8824 C.ar    1  UNL1        0.0350
     15 C          66.5820   96.8547    7.8781 C.3     1  UNL1        0.2525
     16 O          66.6055   96.4703    9.3278 O.3     1  UNL1       -0.4714
     17 O          62.1166   89.2676   12.4178 O.3     1  UNL1       -0.4630
     18 C          61.7010   88.4453   11.2341 C.ar    1  UNL1        0.1402
     19 C          60.9266   89.0780   10.1160 C.ar    1  UNL1        0.0324
     20 C          60.5110   88.2559    8.9323 C.ar    1  UNL1       -0.0231
     21 C          59.7366   88.8886    7.8143 C.3     1  UNL1        0.0308
     22 C          60.8697   86.8008    8.8666 C.ar    1  UNL1       -0.0292
     23 C          60.4541   85.9786    7.6830 C.3     1  UNL1        0.0304
     24 C          61.6440   86.1681    9.9847 C.ar    1  UNL1       -0.0171
     25 C          62.0597   86.9903   11.1684 C.ar    1  UNL1        0.0479
     26 C          62.8103   86.0980   12.1121 C.ar    1  UNL1        0.0868
     27 N          63.5310   86.0548   13.4268 N.ar    1  UNL1       -0.2365
     28 C          64.0247   84.6543   13.6389 C.ar    1  UNL1        0.1342
     29 S          63.6091   83.8321   12.4552 S.2     1  UNL1       -0.0685
     30 C          62.8585   84.7243   11.5115 C.ar    1  UNL1        0.0308
     31 C          62.1378   84.7676   10.1968 C.3     1  UNL1        0.0606
@<TRIPOS>BOND
     1    15    16    1
     2    16     9    1
     3     9    10   ar
     4    10    11   ar
     5    11    12   ar
     6    12    13   ar
     7     2    13    1
     8     2     3    1
     9     3     4    1
    10     4     5    1
    11     5     6    1
    12     6     7    2
    13     6     1    1
    14     1    17    1
    15    17    18    1
    16    18    19   ar
    17    19    20   ar
    18    20    21    1
    19    20    22   ar
    20    22    23    1
    21    22    24   ar
    22    24    25   ar
    23    25    26    1
    24    26    27   ar
    25    27    28   ar
    26    28    29   ar
    27    29    30   ar
    28    30    31    1
    29     6     8    1
    30    13    14   ar
    31    14     9   ar
    32     8     2    1
    33    25    18   ar
    34    30    26   ar
    35    31    24    1
@<TRIPOS>MOLECULE
*****
 31 35 0 0 0
SMALL
GASTEIGER

@<TRIPOS>ATOM
      1 C          64.2201   87.7971   14.9003 C.3     1  UNL1        0.3201
      2 C          63.1108   84.9545   13.3657 C.3     1  UNL1        0.1489
      3 C          62.4607   83.9663   14.2883 C.3     1  UNL1        0.0672
      4 C          62.3438   84.2716   15.7522 C.3     1  UNL1        0.1543
      5 O          62.8769   85.5649   16.2937 O.3     1  UNL1       -0.2916
      6 P          63.5270   86.5530   15.3711 P.3     1  UNL1        0.3872
      7 O          63.6508   87.2902   16.6716 O.2     1  UNL1       -0.2539
      8 O          63.6439   86.2477   13.9072 O.3     1  UNL1       -0.2896
      9 C          62.6964   85.2459    9.4296 C.ar    1  UNL1        0.1385
     10 C          63.4616   84.0389    8.9739 C.ar    1  UNL1        0.0369
     11 C          64.1098   83.1371    9.9821 C.ar    1  UNL1        0.0029
     12 C          63.9929   83.4422   11.4461 C.ar    1  UNL1       -0.0017
     13 C          63.2278   84.6493   11.9018 C.ar    1  UNL1        0.0081
     14 C          62.5795   85.5511   10.8935 C.ar    1  UNL1        0.0350
     15 C          60.6078   85.9484    8.0533 C.3     1  UNL1        0.2525
     16 O          62.0482   86.1477    8.4213 O.3     1  UNL1       -0.4714
     17 O          63.4253   89.0380   14.6200 O.3     1  UNL1       -0.4630
     18 C          63.9546   90.0683   13.6669 C.ar    1  UNL1        0.1402
     19 C          65.1326   90.9127   14.0535 C.ar    1  UNL1        0.0324
     20 C          65.6619   91.9430   13.1006 C.ar    1  UNL1       -0.0231
     21 C          66.8399   92.7874   13.4872 C.3     1  UNL1        0.0308
     22 C          65.0133   92.1291   11.7609 C.ar    1  UNL1       -0.0292
     23 C          65.5426   93.1594   10.8080 C.3     1  UNL1        0.0304
     24 C          63.8353   91.2847   11.3743 C.ar    1  UNL1       -0.0171
     25 C          63.3060   90.2543   12.3273 C.ar    1  UNL1        0.0479
     26 C          62.1394   89.5745   11.6739 C.ar    1  UNL1        0.0868
     27 N          61.0913   88.5175   11.8591 N.ar    1  UNL1       -0.2365
     28 C          60.2519   88.4744   10.6167 C.ar    1  UNL1        0.1342
     29 S          60.7812   89.5048    9.6637 S.2     1  UNL1       -0.0685
     30 C          61.9478   90.1846   10.3171 C.ar    1  UNL1        0.0308
     31 C          62.9958   91.2416   10.1319 C.3     1  UNL1        0.0606
@<TRIPOS>BOND
     1    15    16    1
     2    16     9    1
     3     9    10   ar
     4    10    11   ar
     5    11    12   ar
     6    12    13   ar
     7     2    13    1
     8     2     3    1
     9     3     4    1
    10     4     5    1
    11     5     6    1
    12     6     7    2
    13     6     1    1
    14     1    17    1
    15    17    18    1
    16    18    19   ar
    17    19    20   ar
    18    20    21    1
    19    20    22   ar
    20    22    23    1
    21    22    24   ar
    22    24    25   ar
    23    25    26    1
    24    26    27   ar
    25    27    28   ar
    26    28    29   ar
    27    29    30   ar
    28    30    31    1
    29     6     8    1
    30    13    14   ar
    31    14     9   ar
    32     8     2    1
    33    25    18   ar
    34    30    26   ar
    35    31    24    1
@<TRIPOS>MOLECULE
*****
 31 35 0 0 0
SMALL
GASTEIGER

@<TRIPOS>ATOM
      1 C          63.2596   90.5592   13.9564 C.3     1  UNL1        0.3201
      2 C          65.9408   92.5847   13.3445 C.3     1  UNL1        0.1489
      3 C          66.6212   93.1006   14.5779 C.3     1  UNL1        0.0672
      4 C          66.1087   92.7152   15.9339 C.3     1  UNL1        0.1543
      5 O          64.9159   91.8139   16.0566 O.3     1  UNL1       -0.2916
      6 P          64.2356   91.2981   14.8233 P.3     1  UNL1        0.3872
      7 O          63.3842   90.6561   15.8784 O.2     1  UNL1       -0.2539
      8 O          64.7481   91.6834   13.4673 O.3     1  UNL1       -0.2896
      9 C          66.5377   94.6510   10.0093 C.ar    1  UNL1        0.1385
     10 C          67.4783   93.7409    9.2765 C.ar    1  UNL1        0.0369
     11 C          67.9064   92.4454    9.8997 C.ar    1  UNL1        0.0029
     12 C          67.3940   92.0600   11.2557 C.ar    1  UNL1       -0.0017
     13 C          66.4533   92.9700   11.9885 C.ar    1  UNL1        0.0081
     14 C          66.0252   94.2655   11.3653 C.ar    1  UNL1        0.0350
     15 C          66.8830   96.5163    8.2341 C.3     1  UNL1        0.2525
     16 O          66.1095   95.9465    9.3860 O.3     1  UNL1       -0.4714
     17 O          63.7546   89.7263   12.8114 O.3     1  UNL1       -0.4630
     18 C          63.5260   88.2438   12.8084 C.ar    1  UNL1        0.1402
     19 C          64.2047   87.3782   13.8283 C.ar    1  UNL1        0.0324
     20 C          63.9762   85.8958   13.8255 C.ar    1  UNL1       -0.0231
     21 C          64.6549   85.0303   14.8453 C.3     1  UNL1        0.0308
     22 C          63.0688   85.2788   12.8026 C.ar    1  UNL1       -0.0292
     23 C          62.8403   83.7964   12.7997 C.3     1  UNL1        0.0304
     24 C          62.3901   86.1443   11.7828 C.ar    1  UNL1       -0.0171
     25 C          62.6187   87.6268   11.7856 C.ar    1  UNL1        0.0479
     26 C          61.8184   88.2214   10.6649 C.ar    1  UNL1        0.0868
     27 N          61.4652   89.5051    9.9740 N.ar    1  UNL1       -0.2365
     28 C          60.5236   89.1835    8.8515 C.ar    1  UNL1        0.1342
     29 S          60.2950   87.7010    8.8486 S.2     1  UNL1       -0.0685
     30 C          61.0953   87.1064    9.9693 C.ar    1  UNL1        0.0308
     31 C          61.4486   85.8227   10.6602 C.3     1  UNL1        0.0606
@<TRIPOS>BOND
     1    15    16    1
     2    16     9    1
     3     9    10   ar
     4    10    11   ar
     5    11    12   ar
     6    12    13   ar
     7     2    13    1
     8     2     3    1
     9     3     4    1
    10     4     5    1
    11     5     6    1
    12     6     7    2
    13     6     1    1
    14     1    17    1
    15    17    18    1
    16    18    19   ar
    17    19    20   ar
    18    20    21    1
    19    20    22   ar
    20    22    23    1
    21    22    24   ar
    22    24    25   ar
    23    25    26    1
    24    26    27   ar
    25    27    28   ar
    26    28    29   ar
    27    29    30   ar
    28    30    31    1
    29     6     8    1
    30    13    14   ar
    31    14     9   ar
    32     8     2    1
    33    25    18   ar
    34    30    26   ar
    35    31    24    1
@<TRIPOS>MOLECULE
*****
 31 35 0 0 0
SMALL
GASTEIGER

@<TRIPOS>ATOM
      1 C          63.9093   86.7042   14.1630 C.3     1  UNL1        0.3201
      2 C          63.9955   90.1187   14.1655 C.3     1  UNL1        0.1489
      3 C          63.6757   90.7450   15.4905 C.3     1  UNL1        0.0672
      4 C          63.3544   89.8782   16.6717 C.3     1  UNL1        0.1543
      5 O          63.3528   88.3851   16.5281 O.3     1  UNL1       -0.2916
      6 P          63.6726   87.7588   15.2031 P.3     1  UNL1        0.3872
      7 O          63.4335   86.5257   16.0232 O.2     1  UNL1       -0.2539
      8 O          63.9940   88.6256   14.0219 O.3     1  UNL1       -0.2896
      9 C          65.6472   92.9545   11.9340 C.ar    1  UNL1        0.1385
     10 C          64.9596   92.7192   10.6218 C.ar    1  UNL1        0.0369
     11 C          63.9506   91.6170   10.4909 C.ar    1  UNL1        0.0029
     12 C          63.6292   90.7501   11.6720 C.ar    1  UNL1       -0.0017
     13 C          64.3169   90.9855   12.9842 C.ar    1  UNL1        0.0081
     14 C          65.3258   92.0877   13.1152 C.ar    1  UNL1        0.0350
     15 C          66.3759   95.4047   11.4694 C.3     1  UNL1        0.2525
     16 O          66.6562   94.0567   12.0649 O.3     1  UNL1       -0.4714
     17 O          62.7453   86.0093   13.5210 O.3     1  UNL1       -0.4630
     18 C          62.7876   85.6683   12.0609 C.ar    1  UNL1        0.1402
     19 C          63.4741   84.4158   11.6028 C.ar    1  UNL1        0.0324
     20 C          63.5165   84.0747   10.1428 C.ar    1  UNL1       -0.0231
     21 C          64.2030   82.8222    9.6847 C.3     1  UNL1        0.0308
     22 C          62.8723   84.9863    9.1406 C.ar    1  UNL1       -0.0292
     23 C          62.9146   84.6453    7.6806 C.3     1  UNL1        0.0304
     24 C          62.1858   86.2388    9.5987 C.ar    1  UNL1       -0.0171
     25 C          62.1435   86.5799   11.0589 C.ar    1  UNL1        0.0479
     26 C          61.3997   87.8736   11.2114 C.ar    1  UNL1        0.0868
     27 N          60.9139   88.8838   12.2081 N.ar    1  UNL1       -0.2365
     28 C          60.1964   89.9667   11.4581 C.ar    1  UNL1        0.1342
     29 S          60.2387   89.6258    9.9980 S.2     1  UNL1       -0.0685
     30 C          60.9824   88.3321    9.8455 C.ar    1  UNL1        0.0308
     31 C          61.4682   87.3218    8.8488 C.3     1  UNL1        0.0606
@<TRIPOS>BOND
     1    15    16    1
     2    16     9    1
     3     9    10   ar
     4    10    11   ar
     5    11    12   ar
     6    12    13   ar
     7     2    13    1
     8     2     3    1
     9     3     4    1
    10     4     5    1
    11     5     6    1
    12     6     7    2
    13     6     1    1
    14     1    17    1
    15    17    18    1
    16    18    19   ar
    17    19    20   ar
    18    20    21    1
    19    20    22   ar
    20    22    23    1
    21    22    24   ar
    22    24    25   ar
    23    25    26    1
    24    26    27   ar
    25    27    28   ar
    26    28    29   ar
    27    29    30   ar
    28    30    31    1
    29     6     8    1
    30    13    14   ar
    31    14     9   ar
    32     8     2    1
    33    25    18   ar
    34    30    26   ar
    35    31    24    1
@<TRIPOS>MOLECULE
*****
 31 35 0 0 0
SMALL
GASTEIGER

@<TRIPOS>ATOM
      1 C          61.5999   89.6101   11.5901 C.3     1  UNL1        0.3201
      2 C          61.7289   86.5720   10.0349 C.3     1  UNL1        0.1489
      3 C          60.9556   86.5001    8.7515 C.3     1  UNL1        0.0672
      4 C          60.2118   87.7047    8.2557 C.3     1  UNL1        0.1543
      5 O          60.2412   88.9810    9.0432 O.3     1  UNL1       -0.2916
      6 P          61.0144   89.0528   10.3266 P.3     1  UNL1        0.3872
      7 O          60.4739   90.4509   10.2695 O.2     1  UNL1       -0.2539
      8 O          61.7582   87.8482   10.8224 O.3     1  UNL1       -0.2896
      9 C          63.1487   83.7838   12.4763 C.ar    1  UNL1        0.1385
     10 C          63.9603   82.9584   11.5224 C.ar    1  UNL1        0.0369
     11 C          64.0281   83.3375   10.0727 C.ar    1  UNL1        0.0029
     12 C          63.2843   84.5420    9.5768 C.ar    1  UNL1       -0.0017
     13 C          62.4727   85.3674   10.5307 C.ar    1  UNL1        0.0081
     14 C          62.4049   84.9883   11.9804 C.ar    1  UNL1        0.0350
     15 C          62.1940   82.2778   14.3658 C.3     1  UNL1        0.2525
     16 O          63.0809   83.4047   13.9260 O.3     1  UNL1       -0.4714
     17 O          63.0318   90.0559   11.6203 O.3     1  UNL1       -0.4630
     18 C          63.6285   90.5766   12.8942 C.ar    1  UNL1        0.1402
     19 C          63.2098   89.9942   14.2116 C.ar    1  UNL1        0.0324
     20 C          63.8064   90.5149   15.4855 C.ar    1  UNL1       -0.0231
     21 C          63.3876   89.9325   16.8028 C.3     1  UNL1        0.0308
     22 C          64.8219   91.6181   15.4421 C.ar    1  UNL1       -0.0292
     23 C          65.4185   92.1388   16.7159 C.3     1  UNL1        0.0304
     24 C          65.2406   92.2005   14.1247 C.ar    1  UNL1       -0.0171
     25 C          64.6440   91.6798   12.8507 C.ar    1  UNL1        0.0479
     26 C          65.2471   92.4444   11.7099 C.ar    1  UNL1        0.0868
     27 N          65.2511   92.5951   10.2175 N.ar    1  UNL1       -0.2365
     28 C          66.2230   93.6815    9.8640 C.ar    1  UNL1        0.1342
     29 S          66.8197   94.2023   11.1378 S.2     1  UNL1       -0.0685
     30 C          66.2166   93.4377   12.2787 C.ar    1  UNL1        0.0308
     31 C          66.2126   93.2870   13.7711 C.3     1  UNL1        0.0606
@<TRIPOS>BOND
     1    15    16    1
     2    16     9    1
     3     9    10   ar
     4    10    11   ar
     5    11    12   ar
     6    12    13   ar
     7     2    13    1
     8     2     3    1
     9     3     4    1
    10     4     5    1
    11     5     6    1
    12     6     7    2
    13     6     1    1
    14     1    17    1
    15    17    18    1
    16    18    19   ar
    17    19    20   ar
    18    20    21    1
    19    20    22   ar
    20    22    23    1
    21    22    24   ar
    22    24    25   ar
    23    25    26    1
    24    26    27   ar
    25    27    28   ar
    26    28    29   ar
    27    29    30   ar
    28    30    31    1
    29     6     8    1
    30    13    14   ar
    31    14     9   ar
    32     8     2    1
    33    25    18   ar
    34    30    26   ar
    35    31    24    1
@<TRIPOS>MOLECULE
*****
 31 35 0 0 0
SMALL
GASTEIGER

@<TRIPOS>ATOM
      1 C          63.8497   86.8463   14.6189 C.3     1  UNL1        0.3201
      2 C          63.9910   90.2463   14.3263 C.3     1  UNL1        0.1489
      3 C          63.7106   90.9894   15.5989 C.3     1  UNL1        0.0672
      4 C          63.4015   90.2327   16.8566 C.3     1  UNL1        0.1543
      5 O          63.3727   88.7330   16.8418 O.3     1  UNL1       -0.2916
      6 P          63.6531   87.9900   15.5693 P.3     1  UNL1        0.3872
      7 O          63.4122   86.8361   16.4970 O.2     1  UNL1       -0.2539
      8 O          63.9622   88.7467   14.3115 O.3     1  UNL1       -0.2896
      9 C          65.7126   92.7757   11.7989 C.ar    1  UNL1        0.1385
     10 C          64.9183   92.5163   10.5531 C.ar    1  UNL1        0.0369
     11 C          63.8149   91.5003   10.5651 C.ar    1  UNL1        0.0029
     12 C          63.5058   90.7436   11.8228 C.ar    1  UNL1       -0.0017
     13 C          64.3001   91.0030   13.0685 C.ar    1  UNL1        0.0081
     14 C          65.4034   92.0190   13.0566 C.ar    1  UNL1        0.0350
     15 C          66.7912   94.9142   10.7921 C.3     1  UNL1        0.2525
     16 O          66.8160   93.7918   11.7869 O.3     1  UNL1       -0.4714
     17 O          62.8800   85.7019   14.6117 O.3     1  UNL1       -0.4630
     18 C          63.0202   84.6064   13.5966 C.ar    1  UNL1        0.1402
     19 C          63.4010   83.2231   14.0338 C.ar    1  UNL1        0.0324
     20 C          63.5412   82.1276   13.0189 C.ar    1  UNL1       -0.0231
     21 C          63.9220   80.7442   13.4561 C.3     1  UNL1        0.0308
     22 C          63.3005   82.4155   11.5665 C.ar    1  UNL1       -0.0292
     23 C          63.4407   81.3201   10.5516 C.3     1  UNL1        0.0304
     24 C          62.9197   83.7988   11.1293 C.ar    1  UNL1       -0.0171
     25 C          62.7795   84.8944   12.1443 C.ar    1  UNL1        0.0479
     26 C          62.3949   86.1506   11.4205 C.ar    1  UNL1        0.0868
     27 N          62.0706   87.6040   11.6004 N.ar    1  UNL1       -0.2365
     28 C          61.7727   88.1832   10.2492 C.ar    1  UNL1        0.1342
     29 S          61.9128   87.0877    9.2342 S.2     1  UNL1       -0.0685
     30 C          62.2974   85.8315    9.9580 C.ar    1  UNL1        0.0308
     31 C          62.6217   84.3781    9.7781 C.3     1  UNL1        0.0606
@<TRIPOS>BOND
     1    15    16    1
     2    16     9    1
     3     9    10   ar
     4    10    11   ar
     5    11    12   ar
     6    12    13   ar
     7     2    13    1
     8     2     3    1
     9     3     4    1
    10     4     5    1
    11     5     6    1
    12     6     7    2
    13     6     1    1
    14     1    17    1
    15    17    18    1
    16    18    19   ar
    17    19    20   ar
    18    20    21    1
    19    20    22   ar
    20    22    23    1
    21    22    24   ar
    22    24    25   ar
    23    25    26    1
    24    26    27   ar
    25    27    28   ar
    26    28    29   ar
    27    29    30   ar
    28    30    31    1
    29     6     8    1
    30    13    14   ar
    31    14     9   ar
    32     8     2    1
    33    25    18   ar
    34    30    26   ar
    35    31    24    1
@<TRIPOS>MOLECULE
*****
 31 35 0 0 0
SMALL
GASTEIGER

@<TRIPOS>ATOM
      1 C          61.8242   86.3302   11.2638 C.3     1  UNL1        0.3201
      2 C          62.6465   89.6433   11.1499 C.3     1  UNL1        0.1489
      3 C          61.9726   90.4110   10.0514 C.3     1  UNL1        0.0672
      4 C          61.0279   89.7126    9.1188 C.3     1  UNL1        0.1543
      5 O          60.7571   88.2466    9.2846 O.3     1  UNL1       -0.2916
      6 P          61.4310   87.4789   10.3831 P.3     1  UNL1        0.3872
      7 O          60.6228   86.3816    9.7563 O.2     1  UNL1       -0.2539
      8 O          62.3757   88.1773   11.3157 O.3     1  UNL1       -0.2896
      9 C          65.1971   92.3190   12.5939 C.ar    1  UNL1        0.1385
     10 C          65.4806   91.7385   13.9477 C.ar    1  UNL1        0.0369
     11 C          64.8194   90.4597   14.3689 C.ar    1  UNL1        0.0029
     12 C          63.8747   89.7612   13.4363 C.ar    1  UNL1       -0.0017
     13 C          63.5912   90.3417   12.0825 C.ar    1  UNL1        0.0081
     14 C          64.2524   91.6205   11.6614 C.ar    1  UNL1        0.0350
     15 C          65.9637   93.9436   10.7170 C.3     1  UNL1        0.2525
     16 O          65.8582   93.5979   12.1728 O.3     1  UNL1       -0.4714
     17 O          62.8588   85.3486   10.7989 O.3     1  UNL1       -0.4630
     18 C          63.0070   84.0286   11.4959 C.ar    1  UNL1        0.1402
     19 C          62.8330   82.7516   10.7286 C.ar    1  UNL1        0.0324
     20 C          62.9812   81.4316   11.4255 C.ar    1  UNL1       -0.0231
     21 C          62.8071   80.1546   10.6581 C.3     1  UNL1        0.0308
     22 C          63.3035   81.3887   12.8899 C.ar    1  UNL1       -0.0292
     23 C          63.4518   80.0688   13.5868 C.3     1  UNL1        0.0304
     24 C          63.4776   82.6657   13.6572 C.ar    1  UNL1       -0.0171
     25 C          63.3294   83.9857   12.9603 C.ar    1  UNL1        0.0479
     26 C          63.5561   85.0713   13.9703 C.ar    1  UNL1        0.0868
     27 N          63.6046   86.5580   14.1637 N.ar    1  UNL1       -0.2365
     28 C          63.9230   86.8277   15.6045 C.ar    1  UNL1        0.1342
     29 S          64.0713   85.5078   16.3015 S.2     1  UNL1       -0.0685
     30 C          63.8445   84.4222   15.2915 C.ar    1  UNL1        0.0308
     31 C          63.7960   82.9356   15.0980 C.3     1  UNL1        0.0606
@<TRIPOS>BOND
     1    15    16    1
     2    16     9    1
     3     9    10   ar
     4    10    11   ar
     5    11    12   ar
     6    12    13   ar
     7     2    13    1
     8     2     3    1
     9     3     4    1
    10     4     5    1
    11     5     6    1
    12     6     7    2
    13     6     1    1
    14     1    17    1
    15    17    18    1
    16    18    19   ar
    17    19    20   ar
    18    20    21    1
    19    20    22   ar
    20    22    23    1
    21    22    24   ar
    22    24    25   ar
    23    25    26    1
    24    26    27   ar
    25    27    28   ar
    26    28    29   ar
    27    29    30   ar
    28    30    31    1
    29     6     8    1
    30    13    14   ar
    31    14     9   ar
    32     8     2    1
    33    25    18   ar
    34    30    26   ar
    35    31    24    1
@<TRIPOS>MOLECULE
*****
 31 35 0 0 0
SMALL
GASTEIGER

@<TRIPOS>ATOM
      1 C          64.1860   86.7322   14.7102 C.3     1  UNL1        0.3201
      2 C          63.9732   90.1265   14.3948 C.3     1  UNL1        0.1489
      3 C          63.5347   90.8377   15.6407 C.3     1  UNL1        0.0672
      4 C          63.2322   90.0550   16.8840 C.3     1  UNL1        0.1543
      5 O          63.3682   88.5612   16.8816 O.3     1  UNL1       -0.2916
      6 P          63.8068   87.8500   15.6358 P.3     1  UNL1        0.3872
      7 O          63.6359   86.6791   16.5577 O.2     1  UNL1       -0.2539
      8 O          64.1092   88.6328   14.3924 O.3     1  UNL1       -0.2896
      9 C          65.6303   92.7608   11.9323 C.ar    1  UNL1        0.1385
     10 C          64.8807   92.4747   10.6649 C.ar    1  UNL1        0.0369
     11 C          63.8286   91.4058   10.6409 C.ar    1  UNL1        0.0029
     12 C          63.5261   90.6230   11.8841 C.ar    1  UNL1       -0.0017
     13 C          64.2757   90.9092   13.1515 C.ar    1  UNL1        0.0081
     14 C          65.3278   91.9781   13.1756 C.ar    1  UNL1        0.0350
     15 C          66.3904   95.1827   11.3782 C.3     1  UNL1        0.2525
     16 O          66.6825   93.8297   11.9563 O.3     1  UNL1       -0.4714
     17 O          63.1298   85.8129   14.1723 O.3     1  UNL1       -0.4630
     18 C          62.9180   85.6988   12.6917 C.ar    1  UNL1        0.1402
     19 C          62.6824   86.9318   11.8706 C.ar    1  UNL1        0.0324
     20 C          62.4705   86.8179   10.3901 C.ar    1  UNL1       -0.0231
     21 C          62.2349   88.0509    9.5690 C.3     1  UNL1        0.0308
     22 C          62.4942   85.4708    9.7305 C.ar    1  UNL1       -0.0292
     23 C          62.2823   85.3568    8.2500 C.3     1  UNL1        0.0304
     24 C          62.7297   84.2378   10.5516 C.ar    1  UNL1       -0.0171
     25 C          62.9416   84.3518   12.0322 C.ar    1  UNL1        0.0479
     26 C          63.1495   82.9703   12.5785 C.ar    1  UNL1        0.0868
     27 N          63.4088   82.1871   13.8312 N.ar    1  UNL1       -0.2365
     28 C          63.4857   80.7352   13.4623 C.ar    1  UNL1        0.1342
     29 S          63.2738   80.6211   11.9817 S.2     1  UNL1       -0.0685
     30 C          63.0660   82.0026   11.4355 C.ar    1  UNL1        0.0308
     31 C          62.8066   82.7858   10.1828 C.3     1  UNL1        0.0606
@<TRIPOS>BOND
     1    15    16    1
     2    16     9    1
     3     9    10   ar
     4    10    11   ar
     5    11    12   ar
     6    12    13   ar
     7     2    13    1
     8     2     3    1
     9     3     4    1
    10     4     5    1
    11     5     6    1
    12     6     7    2
    13     6     1    1
    14     1    17    1
    15    17    18    1
    16    18    19   ar
    17    19    20   ar
    18    20    21    1
    19    20    22   ar
    20    22    23    1
    21    22    24   ar
    22    24    25   ar
    23    25    26    1
    24    26    27   ar
    25    27    28   ar
    26    28    29   ar
    27    29    30   ar
    28    30    31    1
    29     6     8    1
    30    13    14   ar
    31    14     9   ar
    32     8     2    1
    33    25    18   ar
    34    30    26   ar
    35    31    24    1
