@<TRIPOS>MOLECULE
*****
 35 39 0 0 0
SMALL
GASTEIGER

@<TRIPOS>ATOM
      1 C          61.9099   88.4967   10.0991 C.ar    1  UNL1        0.1456
      2 N          62.5200   89.8377    9.8173 N.ar    1  UNL1       -0.2281
      3 C          63.4699   90.4516   10.8026 C.ar    1  UNL1        0.0875
      4 C          64.0800   91.7926   10.5208 C.ar    1  UNL1        0.0193
      5 C          65.0298   92.4065   11.5061 C.ar    1  UNL1        0.0015
      6 C          65.3695   91.6793   12.7733 C.ar    1  UNL1        0.0002
      7 C          64.7594   90.3384   13.0552 C.ar    1  UNL1        0.0063
      8 C          63.8096   89.7245   12.0699 C.ar    1  UNL1        0.0739
      9 C          63.1995   88.3834   12.3517 C.ar    1  UNL1        0.2633
     10 O          63.5392   87.6563   13.6189 O.2     1  UNL1       -0.2669
     11 N          62.2496   87.7696   11.3664 N.ar    1  UNL1       -0.2806
     12 C          59.5798   90.0836    9.0732 C.3     1  UNL1        0.0311
     13 C          59.7950   88.6762    8.6008 C.ar    1  UNL1       -0.0189
     14 C          58.8451   88.0623    7.6155 C.ar    1  UNL1       -0.0042
     15 C          59.0603   86.6551    7.1431 C.ar    1  UNL1       -0.0003
     16 C          60.2253   85.8616    7.6561 C.ar    1  UNL1        0.0001
     17 C          61.1752   86.4755    8.6414 C.ar    1  UNL1        0.0027
     18 C          60.9600   87.8828    9.1138 C.ar    1  UNL1        0.0303
     19 C          66.3194   92.2933   13.7587 C.ar    1  UNL1        0.0001
     20 C          67.0618   91.4217   14.7278 C.ar    1  UNL1        0.0009
     21 C          68.0116   92.0356   15.7132 C.ar    1  UNL1        0.0114
     22 C          68.2191   93.5211   15.7294 C.ar    1  UNL1        0.0577
     23 CL         69.1689   94.1351   16.7147 Cl      1  UNL1       -0.0822
     24 C          67.4767   94.3927   14.7602 C.ar    1  UNL1        0.0114
     25 C          66.5269   93.7788   13.7749 C.ar    1  UNL1        0.0009
     26 C          61.6395   86.4285   11.6482 C.3     1  UNL1        0.1118
     27 C          62.4810   85.1895   11.5660 C.3     1  UNL1        0.0388
     28 C          63.0976   84.7870   10.2591 C.3     1  UNL1        0.0048
     29 C          63.9390   83.5480   10.1770 C.3     1  UNL1        0.0174
     30 C          64.1639   82.7115   11.4017 C.3     1  UNL1        0.0720
     31 N          63.5473   83.1140   12.7084 N.3     1  UNL1       -0.2739
     32 C          62.7059   84.3530   12.7906 C.3     1  UNL1        0.0739
     33 C          63.7722   82.2776   13.9330 C.3     1  UNL1        0.0576
     34 C          63.5888   80.7902   13.8694 C.3     1  UNL1        0.0173
     35 C          64.1806   82.9285   15.2214 C.3     1  UNL1        0.0173
@<TRIPOS>BOND
     1    12    13    1
     2    13    14   ar
     3    14    15   ar
     4    15    16   ar
     5    16    17   ar
     6    17    18   ar
     7    18     1    1
     8     1     2   ar
     9     2     3   ar
    10     3     4   ar
    11     4     5   ar
    12     5     6   ar
    13     6    19    1
    14    19    20   ar
    15    20    21   ar
    16    21    22   ar
    17    22    23    1
    18    22    24   ar
    19    24    25   ar
    20     6     7   ar
    21     7     8   ar
    22     8     9   ar
    23     9    10    2
    24     9    11   ar
    25    11    26    1
    26    27    26    1
    27    27    28    1
    28    28    29    1
    29    29    30    1
    30    30    31    1
    31    31    33    1
    32    33    34    1
    33    33    35    1
    34    31    32    1
    35    18    13   ar
    36    11     1   ar
    37    32    27    1
    38     8     3   ar
    39    25    19   ar
@<TRIPOS>MOLECULE
*****
 35 39 0 0 0
SMALL
GASTEIGER

@<TRIPOS>ATOM
      1 C          61.9600   88.2202   10.2869 C.ar    1  UNL1        0.1456
      2 N          62.5460   89.5540    9.9301 N.ar    1  UNL1       -0.2281
      3 C          63.4685   90.2483   10.8878 C.ar    1  UNL1        0.0875
      4 C          64.0546   91.5821   10.5310 C.ar    1  UNL1        0.0193
      5 C          64.9771   92.2763   11.4887 C.ar    1  UNL1        0.0015
      6 C          65.3134   91.6366   12.8031 C.ar    1  UNL1        0.0002
      7 C          64.7274   90.3028   13.1599 C.ar    1  UNL1        0.0063
      8 C          63.8049   89.6086   12.2022 C.ar    1  UNL1        0.0739
      9 C          63.2188   88.2747   12.5589 C.ar    1  UNL1        0.2633
     10 O          63.5552   87.6350   13.8733 O.2     1  UNL1       -0.2669
     11 N          62.2963   87.5805   11.6013 N.ar    1  UNL1       -0.2806
     12 C          62.9378   85.8701    8.6991 C.3     1  UNL1        0.0311
     13 C          61.5264   86.3509    8.5353 C.ar    1  UNL1       -0.0189
     14 C          60.6040   85.6566    7.5777 C.ar    1  UNL1       -0.0042
     15 C          59.1926   86.1374    7.4139 C.ar    1  UNL1       -0.0003
     16 C          58.7037   87.3124    8.2078 C.ar    1  UNL1        0.0001
     17 C          59.6261   88.0067    9.1654 C.ar    1  UNL1        0.0027
     18 C          61.0374   87.5259    9.3292 C.ar    1  UNL1        0.0303
     19 C          66.2360   92.3309   13.7608 C.ar    1  UNL1        0.0001
     20 C          66.4690   93.8077   13.6404 C.ar    1  UNL1        0.0009
     21 C          67.3915   94.5020   14.5981 C.ar    1  UNL1        0.0114
     22 C          68.0809   93.7193   15.6761 C.ar    1  UNL1        0.0577
     23 CL         69.0034   94.4135   16.6337 Cl      1  UNL1       -0.0822
     24 C          67.8478   92.2424   15.7965 C.ar    1  UNL1        0.0114
     25 C          66.9253   91.5482   14.8388 C.ar    1  UNL1        0.0009
     26 C          61.7102   86.2466   11.9580 C.3     1  UNL1        0.1118
     27 C          62.6087   85.1193   12.3727 C.3     1  UNL1        0.0388
     28 C          63.7510   85.3767   13.3103 C.3     1  UNL1        0.0048
     29 C          64.6495   84.2494   13.7250 C.3     1  UNL1        0.0174
     30 C          64.4056   82.8647   13.2021 C.3     1  UNL1        0.0720
     31 N          63.2634   82.6074   12.2646 N.3     1  UNL1       -0.2739
     32 C          62.3649   83.7347   11.8499 C.3     1  UNL1        0.0739
     33 C          63.0196   81.2228   11.7419 C.3     1  UNL1        0.0576
     34 C          63.2169   80.9256   10.2849 C.3     1  UNL1        0.0173
     35 C          62.5784   80.1352   12.6760 C.3     1  UNL1        0.0173
@<TRIPOS>BOND
     1    12    13    1
     2    13    14   ar
     3    14    15   ar
     4    15    16   ar
     5    16    17   ar
     6    17    18   ar
     7    18     1    1
     8     1     2   ar
     9     2     3   ar
    10     3     4   ar
    11     4     5   ar
    12     5     6   ar
    13     6    19    1
    14    19    20   ar
    15    20    21   ar
    16    21    22   ar
    17    22    23    1
    18    22    24   ar
    19    24    25   ar
    20     6     7   ar
    21     7     8   ar
    22     8     9   ar
    23     9    10    2
    24     9    11   ar
    25    11    26    1
    26    27    26    1
    27    27    28    1
    28    28    29    1
    29    29    30    1
    30    30    31    1
    31    31    33    1
    32    33    34    1
    33    33    35    1
    34    31    32    1
    35    18    13   ar
    36    11     1   ar
    37    32    27    1
    38     8     3   ar
    39    25    19   ar
@<TRIPOS>MOLECULE
*****
 35 39 0 0 0
SMALL
GASTEIGER

@<TRIPOS>ATOM
      1 C          63.9867   88.9765   14.5559 C.ar    1  UNL1        0.1456
      2 N          65.0607   89.9901   14.8185 N.ar    1  UNL1       -0.2281
      3 C          65.4438   90.9710   13.7502 C.ar    1  UNL1        0.0875
      4 C          66.5178   91.9846   14.0128 C.ar    1  UNL1        0.0193
      5 C          66.9008   92.9653   12.9445 C.ar    1  UNL1        0.0015
      6 C          66.2098   92.9325   11.6136 C.ar    1  UNL1        0.0002
      7 C          65.1358   91.9189   11.3509 C.ar    1  UNL1        0.0063
      8 C          64.7528   90.9381   12.4193 C.ar    1  UNL1        0.0739
      9 C          63.6787   89.9245   12.1566 C.ar    1  UNL1        0.2633
     10 O          62.9877   89.8917   10.8257 O.2     1  UNL1       -0.2669
     11 N          63.2956   88.9437   13.2250 N.ar    1  UNL1       -0.2806
     12 C          65.0292   86.1653   14.4548 C.3     1  UNL1        0.0311
     13 C          64.1248   86.5901   15.5737 C.ar    1  UNL1       -0.0189
     14 C          63.7418   85.6092   16.6420 C.ar    1  UNL1       -0.0042
     15 C          62.8375   86.0340   17.7608 C.ar    1  UNL1       -0.0003
     16 C          62.3163   87.4396   17.8113 C.ar    1  UNL1        0.0001
     17 C          62.6993   88.4205   16.7430 C.ar    1  UNL1        0.0027
     18 C          63.6036   87.9957   15.6242 C.ar    1  UNL1        0.0303
     19 C          66.5929   93.9134   10.5452 C.ar    1  UNL1        0.0001
     20 C          67.3869   93.4565    9.3575 C.ar    1  UNL1        0.0009
     21 C          67.7699   94.4374    8.2891 C.ar    1  UNL1        0.0114
     22 C          67.3590   95.8750    8.4086 C.ar    1  UNL1        0.0577
     23 CL         67.7420   96.8559    7.3404 Cl      1  UNL1       -0.0822
     24 C          66.5650   96.3318    9.5965 C.ar    1  UNL1        0.0114
     25 C          66.1819   95.3510   10.6648 C.ar    1  UNL1        0.0009
     26 C          62.2216   87.9300   12.9623 C.3     1  UNL1        0.1118
     27 C          62.3980   86.9159   11.8713 C.3     1  UNL1        0.0388
     28 C          62.0235   87.2598   10.4600 C.3     1  UNL1        0.0048
     29 C          62.1999   86.2458    9.3689 C.3     1  UNL1        0.0174
     30 C          62.7508   84.8877    9.6891 C.3     1  UNL1        0.0720
     31 N          63.1252   84.5439   11.1003 N.3     1  UNL1       -0.2739
     32 C          62.9488   85.5580   12.1914 C.3     1  UNL1        0.0739
     33 C          63.6761   83.1860   11.4204 C.3     1  UNL1        0.0576
     34 C          63.9337   82.7981   12.8463 C.3     1  UNL1        0.0173
     35 C          63.9694   82.2158   10.3145 C.3     1  UNL1        0.0173
@<TRIPOS>BOND
     1    12    13    1
     2    13    14   ar
     3    14    15   ar
     4    15    16   ar
     5    16    17   ar
     6    17    18   ar
     7    18     1    1
     8     1     2   ar
     9     2     3   ar
    10     3     4   ar
    11     4     5   ar
    12     5     6   ar
    13     6    19    1
    14    19    20   ar
    15    20    21   ar
    16    21    22   ar
    17    22    23    1
    18    22    24   ar
    19    24    25   ar
    20     6     7   ar
    21     7     8   ar
    22     8     9   ar
    23     9    10    2
    24     9    11   ar
    25    11    26    1
    26    27    26    1
    27    27    28    1
    28    28    29    1
    29    29    30    1
    30    30    31    1
    31    31    33    1
    32    33    34    1
    33    33    35    1
    34    31    32    1
    35    18    13   ar
    36    11     1   ar
    37    32    27    1
    38     8     3   ar
    39    25    19   ar
@<TRIPOS>MOLECULE
*****
 35 39 0 0 0
SMALL
GASTEIGER

@<TRIPOS>ATOM
      1 C          64.1075   88.3400   14.1002 C.ar    1  UNL1        0.1456
      2 N          64.4239   87.0746   14.8408 N.ar    1  UNL1       -0.2281
      3 C          64.1321   85.7444   14.2119 C.ar    1  UNL1        0.0875
      4 C          64.4485   84.4790   14.9525 C.ar    1  UNL1        0.0193
      5 C          64.1566   83.1489   14.3236 C.ar    1  UNL1        0.0015
      6 C          63.5484   83.0842   12.9540 C.ar    1  UNL1        0.0002
      7 C          63.2320   84.3496   12.2133 C.ar    1  UNL1        0.0063
      8 C          63.5238   85.6797   12.8423 C.ar    1  UNL1        0.0739
      9 C          63.2075   86.9452   12.1016 C.ar    1  UNL1        0.2633
     10 O          62.5992   86.8805   10.7320 O.2     1  UNL1       -0.2669
     11 N          63.4993   88.2753   12.7306 N.ar    1  UNL1       -0.2806
     12 C          62.6366   89.1841   16.5748 C.3     1  UNL1        0.0311
     13 C          63.6639   90.0922   15.9665 C.ar    1  UNL1       -0.0189
     14 C          63.9557   91.4223   16.5954 C.ar    1  UNL1       -0.0042
     15 C          64.9829   92.3304   15.9870 C.ar    1  UNL1       -0.0003
     16 C          65.7184   91.9083   14.7497 C.ar    1  UNL1        0.0001
     17 C          65.4266   90.5782   14.1208 C.ar    1  UNL1        0.0027
     18 C          64.3994   89.6702   14.7291 C.ar    1  UNL1        0.0303
     19 C          63.2566   81.7540   12.3250 C.ar    1  UNL1        0.0001
     20 C          63.3918   81.5801   10.8413 C.ar    1  UNL1        0.0009
     21 C          63.1000   80.2500   10.2123 C.ar    1  UNL1        0.0114
     22 C          62.6729   79.0937   11.0672 C.ar    1  UNL1        0.0577
     23 CL         62.3811   77.7636   10.4383 Cl      1  UNL1       -0.0822
     24 C          62.5377   79.2677   12.5510 C.ar    1  UNL1        0.0114
     25 C          62.8295   80.5978   13.1798 C.ar    1  UNL1        0.0009
     26 C          63.1829   89.5408   11.9899 C.3     1  UNL1        0.1118
     27 C          61.8296   89.7292   11.3710 C.3     1  UNL1        0.0388
     28 C          60.7777   90.5177   12.0935 C.3     1  UNL1        0.0048
     29 C          59.4243   90.7061   11.4747 C.3     1  UNL1        0.0174
     30 C          59.1229   90.1060   10.1333 C.3     1  UNL1        0.0720
     31 N          60.1748   89.3176    9.4109 N.3     1  UNL1       -0.2739
     32 C          61.5281   89.1292   10.0297 C.3     1  UNL1        0.0739
     33 C          59.8733   88.7176    8.0696 C.3     1  UNL1        0.0576
     34 C          59.7162   89.6039    6.8697 C.3     1  UNL1        0.0173
     35 C          59.7289   87.2313    7.9282 C.3     1  UNL1        0.0173
@<TRIPOS>BOND
     1    12    13    1
     2    13    14   ar
     3    14    15   ar
     4    15    16   ar
     5    16    17   ar
     6    17    18   ar
     7    18     1    1
     8     1     2   ar
     9     2     3   ar
    10     3     4   ar
    11     4     5   ar
    12     5     6   ar
    13     6    19    1
    14    19    20   ar
    15    20    21   ar
    16    21    22   ar
    17    22    23    1
    18    22    24   ar
    19    24    25   ar
    20     6     7   ar
    21     7     8   ar
    22     8     9   ar
    23     9    10    2
    24     9    11   ar
    25    11    26    1
    26    27    26    1
    27    27    28    1
    28    28    29    1
    29    29    30    1
    30    30    31    1
    31    31    33    1
    32    33    34    1
    33    33    35    1
    34    31    32    1
    35    18    13   ar
    36    11     1   ar
    37    32    27    1
    38     8     3   ar
    39    25    19   ar
@<TRIPOS>MOLECULE
*****
 35 39 0 0 0
SMALL
GASTEIGER

@<TRIPOS>ATOM
      1 C          64.1846   88.5396   14.4450 C.ar    1  UNL1        0.1456
      2 N          64.8510   87.2690   14.8824 N.ar    1  UNL1       -0.2281
      3 C          64.5077   85.9723   14.2109 C.ar    1  UNL1        0.0875
      4 C          65.1741   84.7017   14.6483 C.ar    1  UNL1        0.0193
      5 C          64.8308   83.4052   13.9768 C.ar    1  UNL1        0.0015
      6 C          63.8210   83.3792   12.8679 C.ar    1  UNL1        0.0002
      7 C          63.1545   84.6498   12.4305 C.ar    1  UNL1        0.0063
      8 C          63.4979   85.9464   13.1020 C.ar    1  UNL1        0.0739
      9 C          62.8314   87.2171   12.6646 C.ar    1  UNL1        0.2633
     10 O          61.8216   87.1911   11.5557 O.2     1  UNL1       -0.2669
     11 N          63.1748   88.5136   13.3361 N.ar    1  UNL1       -0.2806
     12 C          62.4645   89.5761   16.6737 C.3     1  UNL1        0.0311
     13 C          63.6678   90.3545   16.2309 C.ar    1  UNL1       -0.0189
     14 C          64.0111   91.6511   16.9024 C.ar    1  UNL1       -0.0042
     15 C          65.2144   92.4295   16.4595 C.ar    1  UNL1       -0.0003
     16 C          66.0745   91.9113   15.3452 C.ar    1  UNL1        0.0001
     17 C          65.7312   90.6147   14.6737 C.ar    1  UNL1        0.0027
     18 C          64.5279   89.8363   15.1165 C.ar    1  UNL1        0.0303
     19 C          63.4776   82.0825   12.1964 C.ar    1  UNL1        0.0001
     20 C          63.0032   80.9174   13.0134 C.ar    1  UNL1        0.0009
     21 C          62.6599   79.6208   12.3419 C.ar    1  UNL1        0.0114
     22 C          62.7910   79.4892   10.8534 C.ar    1  UNL1        0.0577
     23 CL         62.4477   78.1927   10.1819 Cl      1  UNL1       -0.0822
     24 C          63.2655   80.6544   10.0365 C.ar    1  UNL1        0.0114
     25 C          63.6088   81.9510   10.7080 C.ar    1  UNL1        0.0009
     26 C          62.5083   89.7843   12.8987 C.3     1  UNL1        0.1118
     27 C          63.1991   90.6989   11.9310 C.3     1  UNL1        0.0388
     28 C          62.6647   90.8592   10.5385 C.3     1  UNL1        0.0048
     29 C          63.3555   91.7737    9.5708 C.3     1  UNL1        0.0174
     30 C          64.5806   92.5279    9.9955 C.3     1  UNL1        0.0720
     31 N          65.1149   92.3675   11.3879 N.3     1  UNL1       -0.2739
     32 C          64.4242   91.4530   12.3556 C.3     1  UNL1        0.0739
     33 C          66.3400   93.1217   11.8125 C.3     1  UNL1        0.0576
     34 C          67.6329   92.3922   12.0275 C.3     1  UNL1        0.0173
     35 C          66.2723   94.6055   12.0221 C.3     1  UNL1        0.0173
@<TRIPOS>BOND
     1    12    13    1
     2    13    14   ar
     3    14    15   ar
     4    15    16   ar
     5    16    17   ar
     6    17    18   ar
     7    18     1    1
     8     1     2   ar
     9     2     3   ar
    10     3     4   ar
    11     4     5   ar
    12     5     6   ar
    13     6    19    1
    14    19    20   ar
    15    20    21   ar
    16    21    22   ar
    17    22    23    1
    18    22    24   ar
    19    24    25   ar
    20     6     7   ar
    21     7     8   ar
    22     8     9   ar
    23     9    10    2
    24     9    11   ar
    25    11    26    1
    26    27    26    1
    27    27    28    1
    28    28    29    1
    29    29    30    1
    30    30    31    1
    31    31    33    1
    32    33    34    1
    33    33    35    1
    34    31    32    1
    35    18    13   ar
    36    11     1   ar
    37    32    27    1
    38     8     3   ar
    39    25    19   ar
@<TRIPOS>MOLECULE
*****
 35 39 0 0 0
SMALL
GASTEIGER

@<TRIPOS>ATOM
      1 C          64.1673   90.5189   13.6010 C.ar    1  UNL1        0.1456
      2 N          63.7914   89.0702   13.6998 N.ar    1  UNL1       -0.2281
      3 C          63.3309   88.3299   12.4791 C.ar    1  UNL1        0.0875
      4 C          62.9550   86.8811   12.5779 C.ar    1  UNL1        0.0193
      5 C          62.4946   86.1409   11.3572 C.ar    1  UNL1        0.0015
      6 C          62.4101   86.8494   10.0378 C.ar    1  UNL1        0.0002
      7 C          62.7860   88.2981    9.9390 C.ar    1  UNL1        0.0063
      8 C          63.2464   89.0384   11.1597 C.ar    1  UNL1        0.0739
      9 C          63.6224   90.4872   11.0609 C.ar    1  UNL1        0.2633
     10 O          63.5379   91.1957    9.7415 O.2     1  UNL1       -0.2669
     11 N          64.0828   91.2274   12.2816 N.ar    1  UNL1       -0.2806
     12 C          67.0543   91.2800   13.8937 C.3     1  UNL1        0.0311
     13 C          66.0712   91.6398   14.9680 C.ar    1  UNL1       -0.0189
     14 C          66.5317   92.3801   16.1886 C.ar    1  UNL1       -0.0042
     15 C          65.5486   92.7398   17.2629 C.ar    1  UNL1       -0.0003
     16 C          64.1051   92.3593   17.1166 C.ar    1  UNL1        0.0001
     17 C          63.6446   91.6190   15.8960 C.ar    1  UNL1        0.0027
     18 C          64.6277   91.2593   14.8217 C.ar    1  UNL1        0.0303
     19 C          61.9497   86.1091    8.8171 C.ar    1  UNL1        0.0001
     20 C          60.5292   86.2383    8.3529 C.ar    1  UNL1        0.0009
     21 C          60.0688   85.4980    7.1322 C.ar    1  UNL1        0.0114
     22 C          61.0289   84.6284    6.3758 C.ar    1  UNL1        0.0577
     23 CL         60.5685   83.8881    5.1552 Cl      1  UNL1       -0.0822
     24 C          62.4494   84.4992    6.8401 C.ar    1  UNL1        0.0114
     25 C          62.9098   85.2395    8.0607 C.ar    1  UNL1        0.0009
     26 C          64.4587   92.6762   12.1828 C.3     1  UNL1        0.1118
     27 C          65.5249   93.1106   11.2213 C.3     1  UNL1        0.0388
     28 C          66.7036   92.2213   10.9567 C.3     1  UNL1        0.0048
     29 C          67.7699   92.6556    9.9952 C.3     1  UNL1        0.0174
     30 C          67.6574   93.9792    9.2983 C.3     1  UNL1        0.0720
     31 N          66.4788   94.8683    9.5629 N.3     1  UNL1       -0.2739
     32 C          65.4125   94.4340   10.5245 C.3     1  UNL1        0.0739
     33 C          66.3664   96.1918    8.8661 C.3     1  UNL1        0.0576
     34 C          67.5932   96.8557    8.3147 C.3     1  UNL1        0.0173
     35 C          65.0270   96.8515    8.7205 C.3     1  UNL1        0.0173
@<TRIPOS>BOND
     1    12    13    1
     2    13    14   ar
     3    14    15   ar
     4    15    16   ar
     5    16    17   ar
     6    17    18   ar
     7    18     1    1
     8     1     2   ar
     9     2     3   ar
    10     3     4   ar
    11     4     5   ar
    12     5     6   ar
    13     6    19    1
    14    19    20   ar
    15    20    21   ar
    16    21    22   ar
    17    22    23    1
    18    22    24   ar
    19    24    25   ar
    20     6     7   ar
    21     7     8   ar
    22     8     9   ar
    23     9    10    2
    24     9    11   ar
    25    11    26    1
    26    27    26    1
    27    27    28    1
    28    28    29    1
    29    29    30    1
    30    30    31    1
    31    31    33    1
    32    33    34    1
    33    33    35    1
    34    31    32    1
    35    18    13   ar
    36    11     1   ar
    37    32    27    1
    38     8     3   ar
    39    25    19   ar
