@<TRIPOS>MOLECULE
*****
 34 36 0 0 0
SMALL
GASTEIGER

@<TRIPOS>ATOM
      1 C          65.6407   93.7242   11.5096 C.ar    1  UNL1        0.0696
      2 C          66.2858   93.4848   12.8424 C.ar    1  UNL1        0.0057
      3 C          65.8720   92.3080   13.6754 C.ar    1  UNL1       -0.0041
      4 C          64.8132   91.3705   13.1756 C.ar    1  UNL1       -0.0185
      5 C          64.1681   91.6098   11.8427 C.ar    1  UNL1        0.0677
      6 C          64.5818   92.7867   11.0097 C.ar    1  UNL1        0.0095
      7 C          64.3994   90.1936   14.0085 C.3     1  UNL1        0.0257
      8 C          64.4621   88.8093   13.4344 C.3     1  UNL1        0.0259
      9 C          64.0484   87.6325   14.2674 C.3     1  UNL1        0.0940
     10 N          63.5719   87.8400   15.6745 N.am    1  UNL1       -0.2761
     11 C          63.1582   86.6631   16.5075 C.2     1  UNL1        0.2491
     12 O          62.6817   86.8706   17.9145 O.2     1  UNL1       -0.2699
     13 C          63.5092   89.2243   16.2486 C.3     1  UNL1        0.0940
     14 C          63.9230   90.4011   15.4156 C.3     1  UNL1        0.0259
     15 C          63.2209   85.2788   15.9334 C.ar    1  UNL1        0.0567
     16 C          64.5476   84.6681   15.5911 C.ar    1  UNL1        0.0252
     17 C          64.6103   83.2838   15.0170 C.ar    1  UNL1        0.0990
     18 N          63.3463   82.5100   14.7852 N.ar    1  UNL1       -0.2423
     19 C          62.0197   83.1206   15.1274 C.ar    1  UNL1        0.0990
     20 C          61.9569   84.5050   15.7015 C.ar    1  UNL1        0.0252
     21 N          66.1701   94.7623    9.1876 N.am    1  UNL1       -0.1708
     22 C          66.0544   94.9010   10.6766 C.2     1  UNL1        0.3078
     23 O          66.3525   96.2165   11.3327 O.2     1  UNL1       -0.2516
     24 H          65.9745   93.8989    8.7569 H       1  UNL1        0.2545
     25 N          67.8290   96.7012    8.6992 N.pl3   1  UNL1       -0.1313
     26 C          66.5839   95.9392    8.3546 C.2     1  UNL1        0.3751
     27 N          65.7524   96.3539    7.1770 N.pl3   1  UNL1       -0.2906
     28 H          68.1006   97.4736    8.1524 H       1  UNL1        0.3060
     29 H          66.0239   97.1263    6.6302 H       1  UNL1        0.2545
     30 H          64.9351   95.8537    6.9508 H       1  UNL1        0.2545
     31 C          63.1092   90.6723   11.3428 C.3     1  UNL1        0.4183
     32 F          62.0503   89.7349   10.8429 F       1  UNL1       -0.1659
     33 F          62.2435   91.0243   12.5161 F       1  UNL1       -0.1659
     34 F          63.9748   90.3204   10.1695 F       1  UNL1       -0.1659
@<TRIPOS>BOND
     1    25    26    2
     2    26    27    1
     3    26    21    1
     4    21    22   am
     5    22    23    2
     6    22     1    1
     7     1     2   ar
     8     2     3   ar
     9     3     4   ar
    10     4     7    1
    11     7     8    1
    12     8     9    1
    13     9    10    1
    14    10    11   am
    15    11    12    2
    16    11    15    1
    17    15    16   ar
    18    16    17   ar
    19    17    18   ar
    20    18    19   ar
    21    19    20   ar
    22    10    13    1
    23    13    14    1
    24     4     5   ar
    25     5    31    1
    26    31    32    1
    27    31    33    1
    28    31    34    1
    29     5     6   ar
    30     6     1   ar
    31    14     7    1
    32    20    15   ar
    33    25    28    1
    34    27    29    1
    35    27    30    1
    36    21    24    1
@<TRIPOS>MOLECULE
*****
 34 36 0 0 0
SMALL
GASTEIGER

@<TRIPOS>ATOM
      1 C          65.3029   92.3518   12.7986 C.ar    1  UNL1        0.0696
      2 C          66.0920   91.6792   13.8825 C.ar    1  UNL1        0.0057
      3 C          65.6878   90.3198   14.3711 C.ar    1  UNL1       -0.0041
      4 C          64.4945   89.6331   13.7757 C.ar    1  UNL1       -0.0185
      5 C          63.7054   90.3057   12.6919 C.ar    1  UNL1        0.0677
      6 C          64.1096   91.6651   12.2033 C.ar    1  UNL1        0.0095
      7 C          64.0903   88.2737   14.2643 C.3     1  UNL1        0.0257
      8 C          64.0642   87.1127   13.3150 C.3     1  UNL1        0.0259
      9 C          63.6600   85.7533   13.8036 C.3     1  UNL1        0.0940
     10 N          63.2818   85.5549   15.2415 N.am    1  UNL1       -0.2761
     11 C          62.8776   84.1956   15.7301 C.2     1  UNL1        0.2491
     12 O          62.4995   83.9972   17.1680 O.2     1  UNL1       -0.2699
     13 C          63.3079   86.7160   16.1908 C.3     1  UNL1        0.0940
     14 C          63.7121   88.0753   15.7022 C.3     1  UNL1        0.0259
     15 C          62.8516   83.0345   14.7807 C.ar    1  UNL1        0.0567
     16 C          64.0838   82.6711   14.0063 C.ar    1  UNL1        0.0252
     17 C          64.0577   81.5100   13.0570 C.ar    1  UNL1        0.0990
     18 N          62.7995   80.7124   12.8820 N.ar    1  UNL1       -0.2423
     19 C          61.5673   81.0758   13.6563 C.ar    1  UNL1        0.0990
     20 C          61.5933   82.2369   14.6057 C.ar    1  UNL1        0.0252
     21 N          65.3381   94.1504   10.9241 N.am    1  UNL1       -0.1708
     22 C          65.7071   93.7112   12.3100 C.2     1  UNL1        0.3078
     23 O          66.4803   94.6314   13.2074 O.2     1  UNL1       -0.2516
     24 H          64.8306   93.5464   10.3351 H       1  UNL1        0.2545
     25 N          67.1904   95.9005   10.4181 N.pl3   1  UNL1       -0.1313
     26 C          65.7423   95.5097   10.4355 C.2     1  UNL1        0.3751
     27 N          64.6984   96.4784    9.9642 N.pl3   1  UNL1       -0.2906
     28 H          67.4557   96.7927   10.0974 H       1  UNL1        0.3060
     29 H          64.9636   97.3706    9.6436 H       1  UNL1        0.2545
     30 H          63.7479   96.2219    9.9756 H       1  UNL1        0.2545
     31 C          62.5120   89.6190   12.0965 C.3     1  UNL1        0.4183
     32 F          61.3187   88.9323   11.5012 F       1  UNL1       -0.1659
     33 F          63.3039   89.3156   10.8592 F       1  UNL1       -0.1659
     34 F          61.7202   89.9224   13.3338 F       1  UNL1       -0.1659
@<TRIPOS>BOND
     1    25    26    2
     2    26    27    1
     3    26    21    1
     4    21    22   am
     5    22    23    2
     6    22     1    1
     7     1     2   ar
     8     2     3   ar
     9     3     4   ar
    10     4     7    1
    11     7     8    1
    12     8     9    1
    13     9    10    1
    14    10    11   am
    15    11    12    2
    16    11    15    1
    17    15    16   ar
    18    16    17   ar
    19    17    18   ar
    20    18    19   ar
    21    19    20   ar
    22    10    13    1
    23    13    14    1
    24     4     5   ar
    25     5    31    1
    26    31    32    1
    27    31    33    1
    28    31    34    1
    29     5     6   ar
    30     6     1   ar
    31    14     7    1
    32    20    15   ar
    33    25    28    1
    34    27    29    1
    35    27    30    1
    36    21    24    1
@<TRIPOS>MOLECULE
*****
 34 36 0 0 0
SMALL
GASTEIGER

@<TRIPOS>ATOM
      1 C          59.5124   89.4999    7.1870 C.ar    1  UNL1        0.0696
      2 C          59.5656   88.0029    7.1098 C.ar    1  UNL1        0.0057
      3 C          60.2560   87.2203    8.1873 C.ar    1  UNL1       -0.0041
      4 C          60.8931   87.9348    9.3421 C.ar    1  UNL1       -0.0185
      5 C          60.8399   89.4319    9.4193 C.ar    1  UNL1        0.0677
      6 C          60.1496   90.2144    8.3418 C.ar    1  UNL1        0.0095
      7 C          61.5835   87.1523   10.4196 C.3     1  UNL1        0.0257
      8 C          61.3382   85.6783   10.5503 C.3     1  UNL1        0.0259
      9 C          62.0286   84.8958   11.6279 C.3     1  UNL1        0.0940
     10 N          62.9642   85.5873   12.5747 N.am    1  UNL1       -0.2761
     11 C          63.6545   84.8047   13.6522 C.2     1  UNL1        0.2491
     12 O          64.5901   85.4962   14.5990 O.2     1  UNL1       -0.2699
     13 C          63.2094   87.0613   12.4440 C.3     1  UNL1        0.0940
     14 C          62.5190   87.8438   11.3664 C.3     1  UNL1        0.0259
     15 C          63.4093   83.3307   13.7829 C.ar    1  UNL1        0.0567
     16 C          64.3899   82.3532   13.2060 C.ar    1  UNL1        0.0252
     17 C          64.1447   80.8792   13.3367 C.ar    1  UNL1        0.0990
     18 N          62.9188   80.3826   14.0443 N.ar    1  UNL1       -0.2423
     19 C          61.9382   81.3601   14.6213 C.ar    1  UNL1        0.0990
     20 C          62.1834   82.8342   14.4906 C.ar    1  UNL1        0.0252
     21 N          59.5921   91.2812    5.2975 N.am    1  UNL1       -0.1708
     22 C          58.8221   90.2824    6.1095 C.2     1  UNL1        0.3078
     23 O          57.3617   90.0662    5.8440 O.2     1  UNL1       -0.2516
     24 H          60.5506   91.4232    5.4717 H       1  UNL1        0.2545
     25 N          59.6955   92.9668    3.3231 N.pl3   1  UNL1       -0.1313
     26 C          58.9017   92.0637    4.2199 C.2     1  UNL1        0.3751
     27 N          57.4175   91.9432    4.0392 N.pl3   1  UNL1       -0.2906
     28 H          59.2424   93.4804    2.6159 H       1  UNL1        0.3060
     29 H          56.9644   92.4568    3.3320 H       1  UNL1        0.2545
     30 H          56.8965   91.3504    4.6278 H       1  UNL1        0.2545
     31 C          61.4770   90.1465   10.5741 C.3     1  UNL1        0.4183
     32 F          62.1141   90.8610   11.7289 F       1  UNL1       -0.1659
     33 F          62.7330   90.3214    9.7730 F       1  UNL1       -0.1659
     34 F          60.2211   89.9715   11.3753 F       1  UNL1       -0.1659
@<TRIPOS>BOND
     1    25    26    2
     2    26    27    1
     3    26    21    1
     4    21    22   am
     5    22    23    2
     6    22     1    1
     7     1     2   ar
     8     2     3   ar
     9     3     4   ar
    10     4     7    1
    11     7     8    1
    12     8     9    1
    13     9    10    1
    14    10    11   am
    15    11    12    2
    16    11    15    1
    17    15    16   ar
    18    16    17   ar
    19    17    18   ar
    20    18    19   ar
    21    19    20   ar
    22    10    13    1
    23    13    14    1
    24     4     5   ar
    25     5    31    1
    26    31    32    1
    27    31    33    1
    28    31    34    1
    29     5     6   ar
    30     6     1   ar
    31    14     7    1
    32    20    15   ar
    33    25    28    1
    34    27    29    1
    35    27    30    1
    36    21    24    1
@<TRIPOS>MOLECULE
*****
 34 36 0 0 0
SMALL
GASTEIGER

@<TRIPOS>ATOM
      1 C          60.4015   91.5981    4.2915 C.ar    1  UNL1        0.0696
      2 C          61.8208   91.2113    3.9984 C.ar    1  UNL1        0.0057
      3 C          62.5673   91.8853    2.8856 C.ar    1  UNL1       -0.0041
      4 C          61.8945   92.9460    2.0658 C.ar    1  UNL1       -0.0185
      5 C          60.4752   93.3328    2.3588 C.ar    1  UNL1        0.0677
      6 C          59.7287   92.6588    3.4716 C.ar    1  UNL1        0.0095
      7 C          62.6411   93.6200    0.9529 C.3     1  UNL1        0.0257
      8 C          62.2075   93.4214   -0.4692 C.3     1  UNL1        0.0259
      9 C          62.9540   94.0954   -1.5820 C.3     1  UNL1        0.0940
     10 N          64.1342   94.9680   -1.2727 N.am    1  UNL1       -0.2761
     11 C          64.8807   95.6420   -2.3856 C.2     1  UNL1        0.2491
     12 O          66.0609   96.5146   -2.0763 O.2     1  UNL1       -0.2699
     13 C          64.5678   95.1667    0.1494 C.3     1  UNL1        0.0940
     14 C          63.8212   94.4927    1.2622 C.3     1  UNL1        0.0259
     15 C          64.4471   95.4434   -3.8077 C.ar    1  UNL1        0.0567
     16 C          63.5658   96.4593   -4.4720 C.ar    1  UNL1        0.0252
     17 C          63.1322   96.2606   -5.8941 C.ar    1  UNL1        0.0990
     18 N          63.5799   95.0461   -6.6520 N.ar    1  UNL1       -0.2423
     19 C          64.4612   94.0302   -5.9878 C.ar    1  UNL1        0.0990
     20 C          64.8948   94.2288   -4.5656 C.ar    1  UNL1        0.0252
     21 N          60.3849   90.0337    6.3657 N.am    1  UNL1       -0.1708
     22 C          59.6549   90.9241    5.4043 C.2     1  UNL1        0.3078
     23 O          58.1784   91.1404    5.5557 O.2     1  UNL1       -0.2516
     24 H          61.3540   89.8917    6.2664 H       1  UNL1        0.2545
     25 N          58.5500   88.3767    7.1640 N.pl3   1  UNL1       -0.1313
     26 C          59.6384   89.3598    7.4786 C.2     1  UNL1        0.3751
     27 N          59.9802   89.6689    8.9060 N.pl3   1  UNL1       -0.2906
     28 H          58.0601   87.9343    7.8944 H       1  UNL1        0.3060
     29 H          59.4902   89.2266    9.6365 H       1  UNL1        0.2545
     30 H          60.6945   90.3142    9.1125 H       1  UNL1        0.2545
     31 C          59.8024   94.3936    1.5390 C.3     1  UNL1        0.4183
     32 F          59.1295   95.4543    0.7192 F       1  UNL1       -0.1659
     33 F          60.4708   95.4542    2.3626 F       1  UNL1       -0.1659
     34 F          59.1339   93.3330    0.7154 F       1  UNL1       -0.1659
@<TRIPOS>BOND
     1    25    26    2
     2    26    27    1
     3    26    21    1
     4    21    22   am
     5    22    23    2
     6    22     1    1
     7     1     2   ar
     8     2     3   ar
     9     3     4   ar
    10     4     7    1
    11     7     8    1
    12     8     9    1
    13     9    10    1
    14    10    11   am
    15    11    12    2
    16    11    15    1
    17    15    16   ar
    18    16    17   ar
    19    17    18   ar
    20    18    19   ar
    21    19    20   ar
    22    10    13    1
    23    13    14    1
    24     4     5   ar
    25     5    31    1
    26    31    32    1
    27    31    33    1
    28    31    34    1
    29     5     6   ar
    30     6     1   ar
    31    14     7    1
    32    20    15   ar
    33    25    28    1
    34    27    29    1
    35    27    30    1
    36    21    24    1
@<TRIPOS>MOLECULE
*****
 34 36 0 0 0
SMALL
GASTEIGER

@<TRIPOS>ATOM
      1 C          59.3012   89.1506    6.9204 C.ar    1  UNL1        0.0696
      2 C          59.3401   87.7076    6.5130 C.ar    1  UNL1        0.0057
      3 C          60.1348   86.7222    7.3178 C.ar    1  UNL1       -0.0041
      4 C          60.8905   87.1799    8.5299 C.ar    1  UNL1       -0.0185
      5 C          60.8516   88.6230    8.9373 C.ar    1  UNL1        0.0677
      6 C          60.0569   89.6083    8.1326 C.ar    1  UNL1        0.0095
      7 C          61.6852   86.1946    9.3346 C.3     1  UNL1        0.0257
      8 C          61.5477   86.1615   10.8279 C.3     1  UNL1        0.0259
      9 C          62.3423   85.1761   11.6327 C.3     1  UNL1        0.0940
     10 N          63.2745   84.2238   10.9441 N.am    1  UNL1       -0.2761
     11 C          64.0691   83.2385   11.7488 C.2     1  UNL1        0.2491
     12 O          65.0013   82.2862   11.0603 O.2     1  UNL1       -0.2699
     13 C          63.4120   84.2569    9.4508 C.3     1  UNL1        0.0940
     14 C          62.6173   85.2422    8.6461 C.3     1  UNL1        0.0259
     15 C          63.9316   83.2054   13.2421 C.ar    1  UNL1        0.0567
     16 C          62.9456   82.2750   13.8841 C.ar    1  UNL1        0.0252
     17 C          62.8081   82.2419   15.3774 C.ar    1  UNL1        0.0990
     18 N          63.6566   83.1393   16.2288 N.ar    1  UNL1       -0.2423
     19 C          64.6426   84.0697   15.5869 C.ar    1  UNL1        0.0990
     20 C          64.7801   84.1028   14.0935 C.ar    1  UNL1        0.0252
     21 N          59.2100   91.1268    5.2363 N.am    1  UNL1       -0.1708
     22 C          58.5066   90.1360    6.1157 C.2     1  UNL1        0.3078
     23 O          57.0085   90.1306    6.1904 O.2     1  UNL1       -0.2516
     24 H          60.1933   91.1304    5.1873 H       1  UNL1        0.2545
     25 N          57.0433   92.5164    4.8833 N.pl3   1  UNL1       -0.1313
     26 C          58.4154   92.1122    4.4316 C.2     1  UNL1        0.3751
     27 N          58.9928   92.6933    3.1750 N.pl3   1  UNL1       -0.2906
     28 H          56.5218   93.1631    4.3552 H       1  UNL1        0.3060
     29 H          58.4713   93.3401    2.6468 H       1  UNL1        0.2545
     30 H          59.8933   92.4280    2.8785 H       1  UNL1        0.2545
     31 C          61.6074   89.0807   10.1495 C.3     1  UNL1        0.4183
     32 F          62.3631   89.5385   11.3616 F       1  UNL1       -0.1659
     33 F          60.3153   89.2425   10.8941 F       1  UNL1       -0.1659
     34 F          62.8994   88.9190    9.4050 F       1  UNL1       -0.1659
@<TRIPOS>BOND
     1    25    26    2
     2    26    27    1
     3    26    21    1
     4    21    22   am
     5    22    23    2
     6    22     1    1
     7     1     2   ar
     8     2     3   ar
     9     3     4   ar
    10     4     7    1
    11     7     8    1
    12     8     9    1
    13     9    10    1
    14    10    11   am
    15    11    12    2
    16    11    15    1
    17    15    16   ar
    18    16    17   ar
    19    17    18   ar
    20    18    19   ar
    21    19    20   ar
    22    10    13    1
    23    13    14    1
    24     4     5   ar
    25     5    31    1
    26    31    32    1
    27    31    33    1
    28    31    34    1
    29     5     6   ar
    30     6     1   ar
    31    14     7    1
    32    20    15   ar
    33    25    28    1
    34    27    29    1
    35    27    30    1
    36    21    24    1
@<TRIPOS>MOLECULE
*****
 34 36 0 0 0
SMALL
GASTEIGER

@<TRIPOS>ATOM
      1 C          59.5580   89.5148    7.2455 C.ar    1  UNL1        0.0696
      2 C          59.7599   90.1172    8.6042 C.ar    1  UNL1        0.0057
      3 C          60.4438   89.3275    9.6807 C.ar    1  UNL1       -0.0041
      4 C          60.9257   87.9354    9.3983 C.ar    1  UNL1       -0.0185
      5 C          60.7238   87.3330    8.0395 C.ar    1  UNL1        0.0677
      6 C          60.0399   88.1227    6.9631 C.ar    1  UNL1        0.0095
      7 C          61.6095   87.1457   10.4748 C.3     1  UNL1        0.0257
      8 C          61.3463   85.6750   10.6082 C.3     1  UNL1        0.0259
      9 C          62.0301   84.8853   11.6846 C.3     1  UNL1        0.0940
     10 N          62.9772   85.5662   12.6276 N.am    1  UNL1       -0.2761
     11 C          63.6611   84.7765   13.7040 C.2     1  UNL1        0.2491
     12 O          64.6082   85.4574   14.6470 O.2     1  UNL1       -0.2699
     13 C          63.2405   87.0369   12.4942 C.3     1  UNL1        0.0940
     14 C          62.5566   87.8266   11.4178 C.3     1  UNL1        0.0259
     15 C          63.3978   83.3058   13.8375 C.ar    1  UNL1        0.0567
     16 C          62.1325   82.8261   14.4848 C.ar    1  UNL1        0.0252
     17 C          61.8693   81.3554   14.6182 C.ar    1  UNL1        0.0990
     18 N          62.8712   80.3645   14.1043 N.ar    1  UNL1       -0.2423
     19 C          64.1365   80.8442   13.4571 C.ar    1  UNL1        0.0990
     20 C          64.3998   82.3149   13.3236 C.ar    1  UNL1        0.0252
     21 N          59.6644   91.2545    5.3188 N.am    1  UNL1       -0.1708
     22 C          58.8742   90.3045    6.1690 C.2     1  UNL1        0.3078
     23 O          57.4000   90.1443    5.9429 O.2     1  UNL1       -0.2516
     24 H          60.6320   91.3597    5.4672 H       1  UNL1        0.2545
     25 N          59.7844   92.9268    3.3341 N.pl3   1  UNL1       -0.1313
     26 C          58.9806   92.0442    4.2424 C.2     1  UNL1        0.3751
     27 N          57.4929   91.9513    4.0742 N.pl3   1  UNL1       -0.2906
     28 H          59.3355   93.4451    2.6276 H       1  UNL1        0.3060
     29 H          57.0440   92.4696    3.3677 H       1  UNL1        0.2545
     30 H          56.9654   91.3720    4.6703 H       1  UNL1        0.2545
     31 C          61.2057   85.9408    7.7571 C.3     1  UNL1        0.4183
     32 F          61.6877   84.5488    7.4747 F       1  UNL1       -0.1659
     33 F          59.7971   85.5108    7.4728 F       1  UNL1       -0.1659
     34 F          62.6143   86.3708    8.0415 F       1  UNL1       -0.1659
@<TRIPOS>BOND
     1    25    26    2
     2    26    27    1
     3    26    21    1
     4    21    22   am
     5    22    23    2
     6    22     1    1
     7     1     2   ar
     8     2     3   ar
     9     3     4   ar
    10     4     7    1
    11     7     8    1
    12     8     9    1
    13     9    10    1
    14    10    11   am
    15    11    12    2
    16    11    15    1
    17    15    16   ar
    18    16    17   ar
    19    17    18   ar
    20    18    19   ar
    21    19    20   ar
    22    10    13    1
    23    13    14    1
    24     4     5   ar
    25     5    31    1
    26    31    32    1
    27    31    33    1
    28    31    34    1
    29     5     6   ar
    30     6     1   ar
    31    14     7    1
    32    20    15   ar
    33    25    28    1
    34    27    29    1
    35    27    30    1
    36    21    24    1
@<TRIPOS>MOLECULE
*****
 34 36 0 0 0
SMALL
GASTEIGER

@<TRIPOS>ATOM
      1 C          63.1593   86.2444   13.6851 C.ar    1  UNL1        0.0696
      2 C          64.2464   86.8234   14.5411 C.ar    1  UNL1        0.0057
      3 C          64.7332   88.2202   14.2923 C.ar    1  UNL1       -0.0041
      4 C          64.1328   89.0381   13.1875 C.ar    1  UNL1       -0.0185
      5 C          63.0457   88.4590   12.3315 C.ar    1  UNL1        0.0677
      6 C          62.5589   87.0622   12.5803 C.ar    1  UNL1        0.0095
      7 C          64.6196   90.4349   12.9387 C.3     1  UNL1        0.0257
      8 C          64.6340   90.9869   11.5441 C.3     1  UNL1        0.0259
      9 C          65.1207   92.3837   11.2953 C.3     1  UNL1        0.0940
     10 N          65.5931   93.2286   12.4412 N.am    1  UNL1       -0.2761
     11 C          66.0798   94.6254   12.1924 C.2     1  UNL1        0.2491
     12 O          66.5522   95.4703   13.3382 O.2     1  UNL1       -0.2699
     13 C          65.5787   92.6766   13.8358 C.3     1  UNL1        0.0940
     14 C          65.0919   91.2798   14.0846 C.3     1  UNL1        0.0259
     15 C          66.0942   95.1774   10.7978 C.ar    1  UNL1        0.0567
     16 C          67.0358   94.6110    9.7766 C.ar    1  UNL1        0.0252
     17 C          67.0502   95.1629    8.3820 C.ar    1  UNL1        0.0990
     18 N          66.1231   96.2814    8.0084 N.ar    1  UNL1       -0.2423
     19 C          65.1815   96.8478    9.0294 C.ar    1  UNL1        0.0990
     20 C          65.1671   96.2958   10.4242 C.ar    1  UNL1        0.0252
     21 N          63.2151   83.7086   13.1226 N.am    1  UNL1       -0.1708
     22 C          62.6725   84.8475   13.9339 C.2     1  UNL1        0.3078
     23 O          61.6432   84.5896   14.9940 O.2     1  UNL1       -0.2516
     24 H          63.8908   83.8778   12.4268 H       1  UNL1        0.2545
     25 N          62.3881   81.8731   14.7648 N.pl3   1  UNL1       -0.1313
     26 C          62.7284   82.3117   13.3714 C.2     1  UNL1        0.3751
     27 N          62.5820   81.3535   12.2266 N.pl3   1  UNL1       -0.2906
     28 H          62.0686   80.9563   14.9281 H       1  UNL1        0.3060
     29 H          62.2625   80.4367   12.3899 H       1  UNL1        0.2545
     30 H          62.8054   81.6413   11.3120 H       1  UNL1        0.2545
     31 C          62.4452   89.2769   11.2266 C.3     1  UNL1        0.4183
     32 F          61.8448   90.0946   10.1218 F       1  UNL1       -0.1659
     33 F          61.7741   90.1547   12.2410 F       1  UNL1       -0.1659
     34 F          63.1163   88.3991   10.2122 F       1  UNL1       -0.1659
@<TRIPOS>BOND
     1    25    26    2
     2    26    27    1
     3    26    21    1
     4    21    22   am
     5    22    23    2
     6    22     1    1
     7     1     2   ar
     8     2     3   ar
     9     3     4   ar
    10     4     7    1
    11     7     8    1
    12     8     9    1
    13     9    10    1
    14    10    11   am
    15    11    12    2
    16    11    15    1
    17    15    16   ar
    18    16    17   ar
    19    17    18   ar
    20    18    19   ar
    21    19    20   ar
    22    10    13    1
    23    13    14    1
    24     4     5   ar
    25     5    31    1
    26    31    32    1
    27    31    33    1
    28    31    34    1
    29     5     6   ar
    30     6     1   ar
    31    14     7    1
    32    20    15   ar
    33    25    28    1
    34    27    29    1
    35    27    30    1
    36    21    24    1
@<TRIPOS>MOLECULE
*****
 34 36 0 0 0
SMALL
GASTEIGER

@<TRIPOS>ATOM
      1 C          63.7958   94.4504   -0.2732 C.ar    1  UNL1        0.0696
      2 C          64.2582   94.3910    1.1525 C.ar    1  UNL1        0.0057
      3 C          63.4097   93.7155    2.1887 C.ar    1  UNL1       -0.0041
      4 C          62.0988   93.0993    1.7992 C.ar    1  UNL1       -0.0185
      5 C          61.6364   93.1586    0.3735 C.ar    1  UNL1        0.0677
      6 C          62.4849   93.8341   -0.6627 C.ar    1  UNL1        0.0095
      7 C          61.2503   92.4237    2.8353 C.3     1  UNL1        0.0257
      8 C          61.8708   91.4544    3.7972 C.3     1  UNL1        0.0259
      9 C          61.0223   90.7788    4.8334 C.3     1  UNL1        0.0940
     10 N          59.5532   91.0727    4.9077 N.am    1  UNL1       -0.2761
     11 C          58.7047   90.3971    5.9439 C.2     1  UNL1        0.2491
     12 O          57.2357   90.6910    6.0182 O.2     1  UNL1       -0.2699
     13 C          58.9327   92.0420    3.9458 C.3     1  UNL1        0.0940
     14 C          59.7813   92.7176    2.9097 C.3     1  UNL1        0.0259
     15 C          59.3252   89.4277    6.9057 C.ar    1  UNL1        0.0567
     16 C          60.0966   89.9343    8.0883 C.ar    1  UNL1        0.0252
     17 C          60.7171   88.9649    9.0502 C.ar    1  UNL1        0.0990
     18 N          60.5663   87.4889    8.8295 N.ar    1  UNL1       -0.2423
     19 C          59.7950   86.9823    7.6470 C.ar    1  UNL1        0.0990
     20 C          59.1744   87.9517    6.6851 C.ar    1  UNL1        0.0252
     21 N          64.2785   95.0249   -2.7605 N.am    1  UNL1       -0.1708
     22 C          64.6443   95.1259   -1.3094 C.2     1  UNL1        0.3078
     23 O          65.8587   95.9025   -0.8944 O.2     1  UNL1       -0.2516
     24 H          63.4815   94.5152   -3.0329 H       1  UNL1        0.2545
     25 N          65.0999   95.2205   -5.2175 N.pl3   1  UNL1       -0.1313
     26 C          65.1270   95.7004   -3.7967 C.2     1  UNL1        0.3751
     27 N          66.0027   96.8560   -3.4120 N.pl3   1  UNL1       -0.2906
     28 H          65.6568   95.6639   -5.8976 H       1  UNL1        0.3060
     29 H          66.5596   97.2994   -4.0920 H       1  UNL1        0.2545
     30 H          66.0205   97.1710   -2.4794 H       1  UNL1        0.2545
     31 C          60.3254   92.5424   -0.0161 C.3     1  UNL1        0.4183
     32 F          59.0145   91.9262   -0.4057 F       1  UNL1       -0.1659
     33 F          60.9635   91.1849   -0.0160 F       1  UNL1       -0.1659
     34 F          59.6874   93.8999   -0.0162 F       1  UNL1       -0.1659
@<TRIPOS>BOND
     1    25    26    2
     2    26    27    1
     3    26    21    1
     4    21    22   am
     5    22    23    2
     6    22     1    1
     7     1     2   ar
     8     2     3   ar
     9     3     4   ar
    10     4     7    1
    11     7     8    1
    12     8     9    1
    13     9    10    1
    14    10    11   am
    15    11    12    2
    16    11    15    1
    17    15    16   ar
    18    16    17   ar
    19    17    18   ar
    20    18    19   ar
    21    19    20   ar
    22    10    13    1
    23    13    14    1
    24     4     5   ar
    25     5    31    1
    26    31    32    1
    27    31    33    1
    28    31    34    1
    29     5     6   ar
    30     6     1   ar
    31    14     7    1
    32    20    15   ar
    33    25    28    1
    34    27    29    1
    35    27    30    1
    36    21    24    1
