@<TRIPOS>MOLECULE
*****
 40 43 0 0 0
SMALL
GASTEIGER

@<TRIPOS>ATOM
      1 C          63.7509   87.2836   15.7878 C.3     1  UNL1        0.0889
      2 C          62.7433   86.5295   16.6040 C.3     1  UNL1        0.0383
      3 C          62.9634   85.0638   16.3732 C.3     1  UNL1        0.0739
      4 N          64.1069   84.9120   15.4143 N.3     1  UNL1       -0.2712
      5 C          64.5936   86.2840   15.0526 C.3     1  UNL1        0.0919
      6 O          63.7544   88.6687   13.1267 O.2     1  UNL1       -0.2733
      7 C          63.8929   89.4680   14.3884 C.2     1  UNL1        0.2425
      8 N          63.8911   88.7755   15.7190 N.am    1  UNL1       -0.3032
      9 H          63.9820   89.3001   16.5471 H       1  UNL1        0.1495
     10 C          64.0331   90.9598   14.3196 C.3     1  UNL1        0.1759
     11 N          64.6079   91.6033   13.0926 N.am    1  UNL1       -0.2931
     12 C          65.5933   92.7263   13.2263 C.2     1  UNL1        0.2462
     13 O          66.0038   93.2059   14.5870 O.2     1  UNL1       -0.2701
     14 H          64.3385   91.2886   12.1995 H       1  UNL1        0.1502
     15 C          66.1681   93.3698   11.9992 C.ar    1  UNL1        0.0533
     16 C          65.8739   94.8098   11.6997 C.ar    1  UNL1        0.0045
     17 C          66.4487   95.4532   10.4727 C.ar    1  UNL1        0.0001
     18 C          67.3178   94.6567    9.5453 C.ar    1  UNL1        0.0039
     19 C          67.6121   93.2167    9.8449 C.ar    1  UNL1        0.0716
     20 C          67.0373   92.5733   11.0718 C.ar    1  UNL1        0.0084
     21 C          68.4812   92.4201    8.9174 C.3     1  UNL1        0.4186
     22 F          69.3503   91.6236    7.9900 F       1  UNL1       -0.1659
     23 F          68.6341   91.3620    9.9695 F       1  UNL1       -0.1659
     24 F          68.3284   93.4783    7.8653 F       1  UNL1       -0.1659
     25 C          64.6656   83.6159   14.9065 C.3     1  UNL1        0.0721
     26 C          63.9124   82.8266   13.8771 C.3     1  UNL1        0.0174
     27 C          63.5538   83.4563   12.5638 C.3     1  UNL1        0.0048
     28 C          62.5708   84.5884   12.5184 C.3     1  UNL1        0.0216
     29 C          62.2122   85.2182   11.2050 C.3     1  UNL1        0.0937
     30 N          62.8367   84.7157    9.9371 N.am    1  UNL1       -0.2761
     31 C          62.4780   85.3454    8.6237 C.2     1  UNL1        0.2490
     32 O          63.1024   84.8430    7.3558 O.2     1  UNL1       -0.2699
     33 C          63.8196   83.5836    9.9825 C.3     1  UNL1        0.0937
     34 C          64.1782   82.9539   11.2958 C.3     1  UNL1        0.0216
     35 C          61.4951   86.4776    8.5784 C.ar    1  UNL1        0.0536
     36 C          60.2156   86.3296    7.8097 C.ar    1  UNL1        0.0045
     37 C          59.2327   87.4617    7.7643 C.ar    1  UNL1        0.0001
     38 C          59.5292   88.7418    8.4877 C.ar    1  UNL1        0.0000
     39 C          60.8088   88.8898    9.2564 C.ar    1  UNL1        0.0001
     40 C          61.7917   87.7577    9.3018 C.ar    1  UNL1        0.0045
@<TRIPOS>BOND
     1     6     7    2
     2     7    10    1
     3    10    11    1
     4    11    12   am
     5    12    13    2
     6    12    15    1
     7    15    16   ar
     8    16    17   ar
     9    17    18   ar
    10    18    19   ar
    11    19    21    1
    12    21    22    1
    13    21    23    1
    14    21    24    1
    15    19    20   ar
    16     7     8   am
    17     1     8    1
    18     1     2    1
    19     2     3    1
    20     3     4    1
    21     4    25    1
    22    25    26    1
    23    26    27    1
    24    27    28    1
    25    28    29    1
    26    29    30    1
    27    30    31   am
    28    31    32    2
    29    31    35    1
    30    35    36   ar
    31    36    37   ar
    32    37    38   ar
    33    38    39   ar
    34    39    40   ar
    35    30    33    1
    36    33    34    1
    37     4     5    1
    38    20    15   ar
    39     5     1    1
    40    34    27    1
    41    40    35   ar
    42    11    14    1
    43     8     9    1
@<TRIPOS>MOLECULE
*****
 40 43 0 0 0
SMALL
GASTEIGER

@<TRIPOS>ATOM
      1 C          63.8981   87.6913   15.6213 C.3     1  UNL1        0.0889
      2 C          63.0707   87.0380   16.6884 C.3     1  UNL1        0.0383
      3 C          63.2735   85.5551   16.5893 C.3     1  UNL1        0.0739
      4 N          64.2262   85.2918   15.4610 N.3     1  UNL1       -0.2712
      5 C          64.6122   86.6120   14.8627 C.3     1  UNL1        0.0919
      6 O          63.3831   88.7611   12.8662 O.2     1  UNL1       -0.2733
      7 C          63.7370   89.6999   13.9813 C.2     1  UNL1        0.2425
      8 N          63.9945   89.1650   15.3588 N.am    1  UNL1       -0.3032
      9 H          64.2268   89.7812   16.0906 H       1  UNL1        0.1495
     10 C          63.8334   91.1736   13.7189 C.3     1  UNL1        0.1759
     11 N          64.5576   91.6733   12.5040 N.am    1  UNL1       -0.2931
     12 C          65.9852   92.1206   12.6129 C.2     1  UNL1        0.2462
     13 O          66.6886   92.0683   13.9367 O.2     1  UNL1       -0.2701
     14 H          64.0960   91.7076   11.6351 H       1  UNL1        0.1502
     15 C          66.7094   92.6203   11.3980 C.ar    1  UNL1        0.0533
     16 C          67.9018   91.8748   10.8762 C.ar    1  UNL1        0.0045
     17 C          68.6260   92.3745    9.6614 C.ar    1  UNL1        0.0001
     18 C          68.1577   93.6197    8.9684 C.ar    1  UNL1        0.0039
     19 C          66.9653   94.3652    9.4902 C.ar    1  UNL1        0.0716
     20 C          66.2412   93.8655   10.7051 C.ar    1  UNL1        0.0084
     21 C          66.4971   95.6104    8.7972 C.3     1  UNL1        0.4186
     22 F          66.0288   96.8556    8.1043 F       1  UNL1       -0.1659
     23 F          66.1105   96.2015   10.1206 F       1  UNL1       -0.1659
     24 F          66.8836   95.0193    7.4739 F       1  UNL1       -0.1659
     25 C          64.7082   83.9448   15.0101 C.3     1  UNL1        0.0721
     26 C          63.8794   83.1307   14.0613 C.3     1  UNL1        0.0174
     27 C          63.5231   83.6829   12.7130 C.3     1  UNL1        0.0048
     28 C          62.4876   84.7616   12.5941 C.3     1  UNL1        0.0216
     29 C          62.1313   85.3140   11.2457 C.3     1  UNL1        0.0937
     30 N          62.8105   84.7874   10.0163 N.am    1  UNL1       -0.2761
     31 C          62.4542   85.3398    8.6679 C.2     1  UNL1        0.2490
     32 O          63.1334   84.8133    7.4384 O.2     1  UNL1       -0.2699
     33 C          63.8460   83.7087   10.1352 C.3     1  UNL1        0.0937
     34 C          64.2023   83.1564   11.4835 C.3     1  UNL1        0.0216
     35 C          61.4187   86.4185    8.5490 C.ar    1  UNL1        0.0536
     36 C          61.6487   87.7531    9.1937 C.ar    1  UNL1        0.0045
     37 C          60.6132   88.8319    9.0748 C.ar    1  UNL1        0.0001
     38 C          59.3478   88.5758    8.3113 C.ar    1  UNL1        0.0000
     39 C          59.1178   87.2411    7.6666 C.ar    1  UNL1        0.0001
     40 C          60.1533   86.1624    7.7854 C.ar    1  UNL1        0.0045
@<TRIPOS>BOND
     1     6     7    2
     2     7    10    1
     3    10    11    1
     4    11    12   am
     5    12    13    2
     6    12    15    1
     7    15    16   ar
     8    16    17   ar
     9    17    18   ar
    10    18    19   ar
    11    19    21    1
    12    21    22    1
    13    21    23    1
    14    21    24    1
    15    19    20   ar
    16     7     8   am
    17     1     8    1
    18     1     2    1
    19     2     3    1
    20     3     4    1
    21     4    25    1
    22    25    26    1
    23    26    27    1
    24    27    28    1
    25    28    29    1
    26    29    30    1
    27    30    31   am
    28    31    32    2
    29    31    35    1
    30    35    36   ar
    31    36    37   ar
    32    37    38   ar
    33    38    39   ar
    34    39    40   ar
    35    30    33    1
    36    33    34    1
    37     4     5    1
    38    20    15   ar
    39     5     1    1
    40    34    27    1
    41    40    35   ar
    42    11    14    1
    43     8     9    1
@<TRIPOS>MOLECULE
*****
 40 43 0 0 0
SMALL
GASTEIGER

@<TRIPOS>ATOM
      1 C          63.5213   85.6383   15.6936 C.3     1  UNL1        0.0889
      2 C          62.3344   84.8569   16.1738 C.3     1  UNL1        0.0383
      3 C          62.5057   83.4343   15.7303 C.3     1  UNL1        0.0739
      4 N          63.7986   83.3364   14.9760 N.3     1  UNL1       -0.2712
      5 C          64.4262   84.6986   14.9533 C.3     1  UNL1        0.0919
      6 O          61.4932   87.2846   17.1690 O.2     1  UNL1       -0.2733
      7 C          62.7472   87.9256   16.6525 C.2     1  UNL1        0.2425
      8 N          63.7612   87.1025   15.9148 N.am    1  UNL1       -0.3032
      9 H          64.5842   87.5231   15.5758 H       1  UNL1        0.1495
     10 C          62.9871   89.3896   16.8736 C.3     1  UNL1        0.1759
     11 N          63.9662   90.1281   16.0098 N.am    1  UNL1       -0.2931
     12 C          63.6545   90.3724   14.5630 C.2     1  UNL1        0.2462
     13 O          62.3637   89.8782   13.9801 O.2     1  UNL1       -0.2701
     14 H          64.8133   90.4524   16.3924 H       1  UNL1        0.1502
     15 C          64.6335   91.1109   13.6992 C.ar    1  UNL1        0.0533
     16 C          64.2066   91.6330   12.3594 C.ar    1  UNL1        0.0045
     17 C          65.1856   92.3715   11.4956 C.ar    1  UNL1        0.0001
     18 C          66.5915   92.5877   11.9716 C.ar    1  UNL1        0.0039
     19 C          67.0185   92.0656   13.3114 C.ar    1  UNL1        0.0716
     20 C          66.0394   91.3272   14.1752 C.ar    1  UNL1        0.0084
     21 C          68.4244   92.2819   13.7874 C.3     1  UNL1        0.4186
     22 F          69.8303   92.4982   14.2634 F       1  UNL1       -0.1659
     23 F          68.9345   91.4148   12.6747 F       1  UNL1       -0.1659
     24 F          67.9143   93.1490   14.9000 F       1  UNL1       -0.1659
     25 C          64.3644   82.0945   14.3536 C.3     1  UNL1        0.0721
     26 C          63.8516   81.6203   13.0261 C.3     1  UNL1        0.0174
     27 C          63.5607   82.6103   11.9374 C.3     1  UNL1        0.0048
     28 C          62.6952   83.8025   12.2196 C.3     1  UNL1        0.0216
     29 C          62.4042   84.7925   11.1308 C.3     1  UNL1        0.0937
     30 N          62.9788   84.5902    9.7601 N.am    1  UNL1       -0.2761
     31 C          62.6879   85.5803    8.6714 C.2     1  UNL1        0.2490
     32 O          63.2624   85.3781    7.3006 O.2     1  UNL1       -0.2699
     33 C          63.8443   83.3980    9.4780 C.3     1  UNL1        0.0937
     34 C          64.1352   82.4081   10.5667 C.3     1  UNL1        0.0216
     35 C          61.8224   86.7725    8.9535 C.ar    1  UNL1        0.0536
     36 C          60.4278   86.8336    8.4047 C.ar    1  UNL1        0.0045
     37 C          59.5623   88.0258    8.6868 C.ar    1  UNL1        0.0001
     38 C          60.0915   89.1569    9.5177 C.ar    1  UNL1        0.0000
     39 C          61.4862   89.0958   10.0666 C.ar    1  UNL1        0.0001
     40 C          62.3517   87.9036    9.7844 C.ar    1  UNL1        0.0045
@<TRIPOS>BOND
     1     6     7    2
     2     7    10    1
     3    10    11    1
     4    11    12   am
     5    12    13    2
     6    12    15    1
     7    15    16   ar
     8    16    17   ar
     9    17    18   ar
    10    18    19   ar
    11    19    21    1
    12    21    22    1
    13    21    23    1
    14    21    24    1
    15    19    20   ar
    16     7     8   am
    17     1     8    1
    18     1     2    1
    19     2     3    1
    20     3     4    1
    21     4    25    1
    22    25    26    1
    23    26    27    1
    24    27    28    1
    25    28    29    1
    26    29    30    1
    27    30    31   am
    28    31    32    2
    29    31    35    1
    30    35    36   ar
    31    36    37   ar
    32    37    38   ar
    33    38    39   ar
    34    39    40   ar
    35    30    33    1
    36    33    34    1
    37     4     5    1
    38    20    15   ar
    39     5     1    1
    40    34    27    1
    41    40    35   ar
    42    11    14    1
    43     8     9    1
@<TRIPOS>MOLECULE
*****
 40 43 0 0 0
SMALL
GASTEIGER

@<TRIPOS>ATOM
      1 C          59.7098   89.5120    6.9361 C.3     1  UNL1        0.0889
      2 C          59.1308   88.1286    6.9650 C.3     1  UNL1        0.0383
      3 C          59.3967   87.5430    8.3201 C.3     1  UNL1        0.0739
      4 N          60.1402   88.5645    9.1288 N.3     1  UNL1       -0.2712
      5 C          60.3336   89.7814    8.2734 C.3     1  UNL1        0.0919
      6 O          57.0810   90.5612    5.9416 O.2     1  UNL1       -0.2733
      7 C          58.3573   90.9843    5.2768 C.2     1  UNL1        0.2425
      8 N          59.6717   90.4597    5.7740 N.am    1  UNL1       -0.3032
      9 H          60.5094   90.7375    5.3376 H       1  UNL1        0.1495
     10 C          58.3193   91.9320    4.1147 C.3     1  UNL1        0.1759
     11 N          59.5197   92.7716    3.7920 N.am    1  UNL1       -0.2931
     12 C          59.7934   93.1750    2.3735 C.2     1  UNL1        0.2462
     13 O          58.8668   92.7388    1.2776 O.2     1  UNL1       -0.2701
     14 H          60.1279   93.0579    4.5113 H       1  UNL1        0.1502
     15 C          60.9938   94.0147    2.0508 C.ar    1  UNL1        0.0533
     16 C          60.8937   95.5109    2.0852 C.ar    1  UNL1        0.0045
     17 C          62.0941   96.3505    1.7625 C.ar    1  UNL1        0.0001
     18 C          63.3946   95.6938    1.4054 C.ar    1  UNL1        0.0039
     19 C          63.4947   94.1976    1.3710 C.ar    1  UNL1        0.0716
     20 C          62.2943   93.3580    1.6937 C.ar    1  UNL1        0.0084
     21 C          64.7952   93.5409    1.0140 C.3     1  UNL1        0.4186
     22 F          66.0957   92.8842    0.6569 F       1  UNL1       -0.1659
     23 F          64.3643   92.2968    1.7326 F       1  UNL1       -0.1659
     24 F          65.2261   94.7850    0.2954 F       1  UNL1       -0.1659
     25 C          60.6079   88.3983   10.5442 C.3     1  UNL1        0.0721
     26 C          60.7037   89.5919   11.4475 C.3     1  UNL1        0.0174
     27 C          62.0269   90.2643   11.6641 C.3     1  UNL1        0.0048
     28 C          62.6818   91.0106   10.5397 C.3     1  UNL1        0.0216
     29 C          64.0051   91.6831   10.7563 C.3     1  UNL1        0.0937
     30 N          64.6734   91.6091   12.0972 N.am    1  UNL1       -0.2761
     31 C          65.9967   92.2816   12.3137 C.2     1  UNL1        0.2490
     32 O          66.6650   92.2077   13.6546 O.2     1  UNL1       -0.2699
     33 C          64.0184   90.8629   13.2215 C.3     1  UNL1        0.0937
     34 C          62.6952   90.1905   13.0050 C.3     1  UNL1        0.0216
     35 C          66.6516   93.0279   11.1894 C.ar    1  UNL1        0.0536
     36 C          66.3545   94.4833   10.9818 C.ar    1  UNL1        0.0045
     37 C          67.0094   95.2296    9.8575 C.ar    1  UNL1        0.0001
     38 C          67.9614   94.5203    8.9407 C.ar    1  UNL1        0.0000
     39 C          68.2586   93.0647    9.1483 C.ar    1  UNL1        0.0001
     40 C          67.6037   92.3185   10.2726 C.ar    1  UNL1        0.0045
@<TRIPOS>BOND
     1     6     7    2
     2     7    10    1
     3    10    11    1
     4    11    12   am
     5    12    13    2
     6    12    15    1
     7    15    16   ar
     8    16    17   ar
     9    17    18   ar
    10    18    19   ar
    11    19    21    1
    12    21    22    1
    13    21    23    1
    14    21    24    1
    15    19    20   ar
    16     7     8   am
    17     1     8    1
    18     1     2    1
    19     2     3    1
    20     3     4    1
    21     4    25    1
    22    25    26    1
    23    26    27    1
    24    27    28    1
    25    28    29    1
    26    29    30    1
    27    30    31   am
    28    31    32    2
    29    31    35    1
    30    35    36   ar
    31    36    37   ar
    32    37    38   ar
    33    38    39   ar
    34    39    40   ar
    35    30    33    1
    36    33    34    1
    37     4     5    1
    38    20    15   ar
    39     5     1    1
    40    34    27    1
    41    40    35   ar
    42    11    14    1
    43     8     9    1
@<TRIPOS>MOLECULE
*****
 40 43 0 0 0
SMALL
GASTEIGER

@<TRIPOS>ATOM
      1 C          59.3094   89.1668    7.2517 C.3     1  UNL1        0.0889
      2 C          59.3266   87.6806    7.0499 C.3     1  UNL1        0.0383
      3 C          60.1693   87.0754    8.1333 C.3     1  UNL1        0.0739
      4 N          60.6730   88.1878    9.0046 N.3     1  UNL1       -0.2712
      5 C          60.1415   89.4803    8.4597 C.3     1  UNL1        0.0919
      6 O          60.8352   90.8350    5.2796 O.2     1  UNL1       -0.2733
      7 C          59.3499   90.9986    5.4096 C.2     1  UNL1        0.2425
      8 N          58.5870   90.1645    6.3956 N.am    1  UNL1       -0.3032
      9 H          57.6121   90.2719    6.4810 H       1  UNL1        0.1495
     10 C          58.6274   91.9962    4.5537 C.3     1  UNL1        0.1759
     11 N          58.8520   92.0142    3.0706 N.am    1  UNL1       -0.2931
     12 C          59.6082   93.1458    2.4402 C.2     1  UNL1        0.2462
     13 O          60.1398   94.2596    3.2928 O.2     1  UNL1       -0.2701
     14 H          58.5032   91.2831    2.5110 H       1  UNL1        0.1502
     15 C          59.8328   93.1638    0.9572 C.ar    1  UNL1        0.0533
     16 C          61.2295   93.1731    0.4103 C.ar    1  UNL1        0.0045
     17 C          61.4541   93.1910   -1.0727 C.ar    1  UNL1        0.0001
     18 C          60.2820   93.1996   -2.0087 C.ar    1  UNL1        0.0039
     19 C          58.8853   93.1904   -1.4618 C.ar    1  UNL1        0.0716
     20 C          58.6607   93.1724    0.0212 C.ar    1  UNL1        0.0084
     21 C          57.7132   93.1990   -2.3978 C.3     1  UNL1        0.4186
     22 F          56.5411   93.2077   -3.3338 F       1  UNL1       -0.1659
     23 F          57.1028   94.3291   -1.6229 F       1  UNL1       -0.1659
     24 F          58.3236   92.0689   -3.1726 F       1  UNL1       -0.1659
     25 C          61.5534   88.0344   10.2093 C.3     1  UNL1        0.0721
     26 C          61.4632   89.0219   11.3348 C.3     1  UNL1        0.0174
     27 C          62.5799   89.9954   11.5697 C.3     1  UNL1        0.0048
     28 C          63.0982   90.8300   10.4363 C.3     1  UNL1        0.0216
     29 C          64.2150   91.8036   10.6712 C.3     1  UNL1        0.0937
     30 N          64.8134   91.9423   12.0397 N.am    1  UNL1       -0.2761
     31 C          65.9302   92.9158   12.2746 C.2     1  UNL1        0.2490
     32 O          66.5287   93.0546   13.6430 O.2     1  UNL1       -0.2699
     33 C          64.2951   91.1076   13.1731 C.3     1  UNL1        0.0937
     34 C          63.1784   90.1342   12.9382 C.3     1  UNL1        0.0216
     35 C          66.4484   93.7505   11.1411 C.ar    1  UNL1        0.0536
     36 C          67.3397   93.1355   10.1032 C.ar    1  UNL1        0.0045
     37 C          67.8579   93.9701    8.9698 C.ar    1  UNL1        0.0001
     38 C          67.4849   95.4199    8.8743 C.ar    1  UNL1        0.0000
     39 C          66.5936   96.0349    9.9122 C.ar    1  UNL1        0.0001
     40 C          66.0753   95.2002   11.0457 C.ar    1  UNL1        0.0045
@<TRIPOS>BOND
     1     6     7    2
     2     7    10    1
     3    10    11    1
     4    11    12   am
     5    12    13    2
     6    12    15    1
     7    15    16   ar
     8    16    17   ar
     9    17    18   ar
    10    18    19   ar
    11    19    21    1
    12    21    22    1
    13    21    23    1
    14    21    24    1
    15    19    20   ar
    16     7     8   am
    17     1     8    1
    18     1     2    1
    19     2     3    1
    20     3     4    1
    21     4    25    1
    22    25    26    1
    23    26    27    1
    24    27    28    1
    25    28    29    1
    26    29    30    1
    27    30    31   am
    28    31    32    2
    29    31    35    1
    30    35    36   ar
    31    36    37   ar
    32    37    38   ar
    33    38    39   ar
    34    39    40   ar
    35    30    33    1
    36    33    34    1
    37     4     5    1
    38    20    15   ar
    39     5     1    1
    40    34    27    1
    41    40    35   ar
    42    11    14    1
    43     8     9    1
@<TRIPOS>MOLECULE
*****
 40 43 0 0 0
SMALL
GASTEIGER

@<TRIPOS>ATOM
      1 C          59.3122   89.1802    7.2285 C.3     1  UNL1        0.0889
      2 C          59.2909   87.6916    7.0460 C.3     1  UNL1        0.0383
      3 C          60.1329   87.0800    8.1263 C.3     1  UNL1        0.0739
      4 N          60.6746   88.1908    8.9765 N.3     1  UNL1       -0.2712
      5 C          60.1673   89.4888    8.4216 C.3     1  UNL1        0.0919
      6 O          60.8605   90.8249    5.2542 O.2     1  UNL1       -0.2733
      7 C          59.3770   91.0065    5.3817 C.2     1  UNL1        0.2425
      8 N          58.6029   90.1842    6.3688 N.am    1  UNL1       -0.3032
      9 H          57.6292   90.3034    6.4525 H       1  UNL1        0.1495
     10 C          58.6677   92.0104    4.5221 C.3     1  UNL1        0.1759
     11 N          58.9296   92.0519    3.0457 N.am    1  UNL1       -0.2931
     12 C          59.6273   93.2339    2.4407 C.2     1  UNL1        0.2462
     13 O          60.0632   94.3744    3.3120 O.2     1  UNL1       -0.2701
     14 H          58.6435   91.3034    2.4738 H       1  UNL1        0.1502
     15 C          59.8892   93.2753    0.9642 C.ar    1  UNL1        0.0533
     16 C          58.7534   93.1223   -0.0035 C.ar    1  UNL1        0.0045
     17 C          59.0153   93.1638   -1.4799 C.ar    1  UNL1        0.0001
     18 C          60.4130   93.3583   -1.9885 C.ar    1  UNL1        0.0039
     19 C          61.5487   93.5113   -1.0207 C.ar    1  UNL1        0.0716
     20 C          61.2868   93.4698    0.4556 C.ar    1  UNL1        0.0084
     21 C          62.9464   93.7058   -1.5293 C.3     1  UNL1        0.4186
     22 F          64.3441   93.9003   -2.0379 F       1  UNL1       -0.1659
     23 F          63.2752   94.5212   -0.3140 F       1  UNL1       -0.1659
     24 F          62.6176   92.8904   -2.7447 F       1  UNL1       -0.1659
     25 C          61.5668   88.0315   10.1717 C.3     1  UNL1        0.0721
     26 C          61.4764   89.0041   11.3101 C.3     1  UNL1        0.0174
     27 C          62.5850   89.9862   11.5472 C.3     1  UNL1        0.0048
     28 C          63.1007   90.8231   10.4142 C.3     1  UNL1        0.0216
     29 C          64.2094   91.8053   10.6514 C.3     1  UNL1        0.0937
     30 N          64.8023   91.9505   12.0215 N.am    1  UNL1       -0.2761
     31 C          65.9110   92.9327   12.2587 C.2     1  UNL1        0.2490
     32 O          66.5040   93.0779   13.6288 O.2     1  UNL1       -0.2699
     33 C          64.2867   91.1136   13.1545 C.3     1  UNL1        0.0937
     34 C          63.1780   90.1314   12.9174 C.3     1  UNL1        0.0216
     35 C          66.4267   93.7695   11.1257 C.ar    1  UNL1        0.0536
     36 C          66.0561   95.2202   11.0356 C.ar    1  UNL1        0.0045
     37 C          66.5718   96.0570    9.9026 C.ar    1  UNL1        0.0001
     38 C          67.4581   95.4432    8.8597 C.ar    1  UNL1        0.0000
     39 C          67.8287   93.9925    8.9498 C.ar    1  UNL1        0.0001
     40 C          67.3130   93.1556   10.0828 C.ar    1  UNL1        0.0045
@<TRIPOS>BOND
     1     6     7    2
     2     7    10    1
     3    10    11    1
     4    11    12   am
     5    12    13    2
     6    12    15    1
     7    15    16   ar
     8    16    17   ar
     9    17    18   ar
    10    18    19   ar
    11    19    21    1
    12    21    22    1
    13    21    23    1
    14    21    24    1
    15    19    20   ar
    16     7     8   am
    17     1     8    1
    18     1     2    1
    19     2     3    1
    20     3     4    1
    21     4    25    1
    22    25    26    1
    23    26    27    1
    24    27    28    1
    25    28    29    1
    26    29    30    1
    27    30    31   am
    28    31    32    2
    29    31    35    1
    30    35    36   ar
    31    36    37   ar
    32    37    38   ar
    33    38    39   ar
    34    39    40   ar
    35    30    33    1
    36    33    34    1
    37     4     5    1
    38    20    15   ar
    39     5     1    1
    40    34    27    1
    41    40    35   ar
    42    11    14    1
    43     8     9    1
@<TRIPOS>MOLECULE
*****
 40 43 0 0 0
SMALL
GASTEIGER

@<TRIPOS>ATOM
      1 C          64.2705   85.9564   15.1302 C.3     1  UNL1        0.0889
      2 C          65.6550   85.4045   14.9616 C.3     1  UNL1        0.0383
      3 C          65.5415   83.9232   14.7545 C.3     1  UNL1        0.0739
      4 N          64.0868   83.5596   14.7951 N.3     1  UNL1       -0.2712
      5 C          63.3013   84.8162   15.0274 C.3     1  UNL1        0.0919
      6 O          62.7734   86.7552   17.6042 O.2     1  UNL1       -0.2733
      7 C          63.1686   87.7952   16.5982 C.2     1  UNL1        0.2425
      8 N          63.9171   87.3958   15.3612 N.am    1  UNL1       -0.3032
      9 H          64.1765   88.0784   14.7009 H       1  UNL1        0.1495
     10 C          62.8153   89.2346   16.8291 C.3     1  UNL1        0.1759
     11 N          63.7370   90.3186   16.3541 N.am    1  UNL1       -0.2931
     12 C          63.9429   90.5375   14.8846 C.2     1  UNL1        0.2462
     13 O          63.2272   89.6724   13.8899 O.2     1  UNL1       -0.2701
     14 H          64.2067   90.8864   17.0070 H       1  UNL1        0.1502
     15 C          64.8646   91.6215   14.4097 C.ar    1  UNL1        0.0533
     16 C          65.7249   92.3586   15.3928 C.ar    1  UNL1        0.0045
     17 C          66.6465   93.4426   14.9179 C.ar    1  UNL1        0.0001
     18 C          66.7078   93.7895   13.4598 C.ar    1  UNL1        0.0039
     19 C          65.8475   93.0524   12.4767 C.ar    1  UNL1        0.0716
     20 C          64.9259   91.9684   12.9516 C.ar    1  UNL1        0.0084
     21 C          65.9089   93.3993   11.0187 C.3     1  UNL1        0.4186
     22 F          65.9702   93.7462    9.5606 F       1  UNL1       -0.1659
     23 F          65.4071   92.0290   10.6715 F       1  UNL1       -0.1659
     24 F          66.4106   94.7696   11.3658 F       1  UNL1       -0.1659
     25 C          63.5176   82.1814   14.6322 C.3     1  UNL1        0.0721
     26 C          63.1472   81.6794   13.2681 C.3     1  UNL1        0.0174
     27 C          63.0227   82.6408   12.1235 C.3     1  UNL1        0.0048
     28 C          62.1774   83.8717   12.2664 C.3     1  UNL1        0.0216
     29 C          62.0529   84.8332   11.1218 C.3     1  UNL1        0.0937
     30 N          62.7736   84.5635    9.8342 N.am    1  UNL1       -0.2761
     31 C          62.6491   85.5250    8.6895 C.2     1  UNL1        0.2490
     32 O          63.3698   85.2555    7.4019 O.2     1  UNL1       -0.2699
     33 C          63.6189   83.3326    9.6912 C.3     1  UNL1        0.0937
     34 C          63.7434   82.3713   10.8358 C.3     1  UNL1        0.0216
     35 C          61.8039   86.7559    8.8325 C.ar    1  UNL1        0.0536
     36 C          60.4811   86.8430    8.1308 C.ar    1  UNL1        0.0045
     37 C          59.6359   88.0739    8.2737 C.ar    1  UNL1        0.0001
     38 C          60.1135   89.2177    9.1185 C.ar    1  UNL1        0.0000
     39 C          61.4364   89.1306    9.8202 C.ar    1  UNL1        0.0001
     40 C          62.2816   87.8997    9.6773 C.ar    1  UNL1        0.0045
@<TRIPOS>BOND
     1     6     7    2
     2     7    10    1
     3    10    11    1
     4    11    12   am
     5    12    13    2
     6    12    15    1
     7    15    16   ar
     8    16    17   ar
     9    17    18   ar
    10    18    19   ar
    11    19    21    1
    12    21    22    1
    13    21    23    1
    14    21    24    1
    15    19    20   ar
    16     7     8   am
    17     1     8    1
    18     1     2    1
    19     2     3    1
    20     3     4    1
    21     4    25    1
    22    25    26    1
    23    26    27    1
    24    27    28    1
    25    28    29    1
    26    29    30    1
    27    30    31   am
    28    31    32    2
    29    31    35    1
    30    35    36   ar
    31    36    37   ar
    32    37    38   ar
    33    38    39   ar
    34    39    40   ar
    35    30    33    1
    36    33    34    1
    37     4     5    1
    38    20    15   ar
    39     5     1    1
    40    34    27    1
    41    40    35   ar
    42    11    14    1
    43     8     9    1
@<TRIPOS>MOLECULE
*****
 40 43 0 0 0
SMALL
GASTEIGER

@<TRIPOS>ATOM
      1 C          63.6113   86.3605   15.7981 C.3     1  UNL1        0.0889
      2 C          63.1353   86.0892   17.1944 C.3     1  UNL1        0.0383
      3 C          62.9129   87.4084   17.8729 C.3     1  UNL1        0.0739
      4 N          63.2515   88.4951   16.8959 N.3     1  UNL1       -0.2712
      5 C          63.6831   87.8474   15.6136 C.3     1  UNL1        0.0919
      6 O          61.5659   84.3269   14.9730 O.2     1  UNL1       -0.2733
      7 C          62.9324   84.3097   14.3547 C.2     1  UNL1        0.2425
      8 N          63.9551   85.3265   14.7672 N.am    1  UNL1       -0.3032
      9 H          64.8520   85.3153   14.3613 H       1  UNL1        0.1495
     10 C          63.2762   83.2758   13.3238 C.3     1  UNL1        0.1759
     11 N          62.9221   83.5051   11.8843 N.am    1  UNL1       -0.2931
     12 C          62.6840   84.8988   11.3834 C.2     1  UNL1        0.2462
     13 O          62.7999   86.0632   12.3219 O.2     1  UNL1       -0.2701
     14 H          62.8460   82.7409   11.2684 H       1  UNL1        0.1502
     15 C          62.3298   85.1281    9.9439 C.ar    1  UNL1        0.0533
     16 C          63.1152   84.4495    8.8610 C.ar    1  UNL1        0.0045
     17 C          62.7610   84.6788    7.4216 C.ar    1  UNL1        0.0001
     18 C          61.6215   85.5868    7.0651 C.ar    1  UNL1        0.0039
     19 C          60.8361   86.2654    8.1480 C.ar    1  UNL1        0.0716
     20 C          61.1903   86.0360    9.5874 C.ar    1  UNL1        0.0084
     21 C          59.6966   87.1733    7.7915 C.3     1  UNL1        0.4186
     22 F          58.5570   88.0812    7.4349 F       1  UNL1       -0.1659
     23 F          60.5231   88.3632    8.1800 F       1  UNL1       -0.1659
     24 F          58.8701   85.9834    7.4029 F       1  UNL1       -0.1659
     25 C          63.1724   89.9703   17.1556 C.3     1  UNL1        0.0721
     26 C          64.2632   90.8772   16.6679 C.3     1  UNL1        0.0174
     27 C          64.3780   91.1936   15.2062 C.3     1  UNL1        0.0048
     28 C          65.5225   92.0243   14.7063 C.3     1  UNL1        0.0216
     29 C          65.6374   92.3407   13.2445 C.3     1  UNL1        0.0937
     30 N          64.6076   91.8263   12.2827 N.am    1  UNL1       -0.2761
     31 C          64.7224   92.1428   10.8209 C.2     1  UNL1        0.2490
     32 O          63.6927   91.6285    9.8591 O.2     1  UNL1       -0.2699
     33 C          63.4630   90.9956   12.7826 C.3     1  UNL1        0.0937
     34 C          63.3482   90.6792   14.2444 C.3     1  UNL1        0.0216
     35 C          65.8670   92.9735   10.3210 C.ar    1  UNL1        0.0536
     36 C          65.7380   94.4664   10.2563 C.ar    1  UNL1        0.0045
     37 C          66.8826   95.2971    9.7564 C.ar    1  UNL1        0.0001
     38 C          68.1561   94.6348    9.3212 C.ar    1  UNL1        0.0000
     39 C          68.2850   93.1417    9.3859 C.ar    1  UNL1        0.0001
     40 C          67.1405   92.3110    9.8858 C.ar    1  UNL1        0.0045
@<TRIPOS>BOND
     1     6     7    2
     2     7    10    1
     3    10    11    1
     4    11    12   am
     5    12    13    2
     6    12    15    1
     7    15    16   ar
     8    16    17   ar
     9    17    18   ar
    10    18    19   ar
    11    19    21    1
    12    21    22    1
    13    21    23    1
    14    21    24    1
    15    19    20   ar
    16     7     8   am
    17     1     8    1
    18     1     2    1
    19     2     3    1
    20     3     4    1
    21     4    25    1
    22    25    26    1
    23    26    27    1
    24    27    28    1
    25    28    29    1
    26    29    30    1
    27    30    31   am
    28    31    32    2
    29    31    35    1
    30    35    36   ar
    31    36    37   ar
    32    37    38   ar
    33    38    39   ar
    34    39    40   ar
    35    30    33    1
    36    33    34    1
    37     4     5    1
    38    20    15   ar
    39     5     1    1
    40    34    27    1
    41    40    35   ar
    42    11    14    1
    43     8     9    1
@<TRIPOS>MOLECULE
*****
 40 43 0 0 0
SMALL
GASTEIGER

@<TRIPOS>ATOM
      1 C          59.1178   91.9671    4.3089 C.3     1  UNL1        0.0889
      2 C          57.7256   91.6814    4.7888 C.3     1  UNL1        0.0383
      3 C          57.7998   90.5661    5.7891 C.3     1  UNL1        0.0739
      4 N          59.2379   90.1625    5.9275 N.3     1  UNL1       -0.2712
      5 C          60.0524   91.0283    5.0127 C.3     1  UNL1        0.0919
      6 O          61.9042   92.0124    3.1982 O.2     1  UNL1       -0.2733
      7 C          60.9002   93.0313    2.7467 C.2     1  UNL1        0.2425
      8 N          59.5070   93.0086    3.3021 N.am    1  UNL1       -0.3032
      9 H          58.8480   93.6773    3.0057 H       1  UNL1        0.1495
     10 C          61.2894   94.0728    1.7399 C.3     1  UNL1        0.1759
     11 N          60.5086   94.2141    0.4669 N.am    1  UNL1       -0.2931
     12 C          60.4046   93.0566   -0.4815 C.2     1  UNL1        0.2462
     13 O          61.0813   91.7579   -0.1569 O.2     1  UNL1       -0.2701
     14 H          60.0645   95.0665    0.2538 H       1  UNL1        0.1502
     15 C          59.6239   93.1979   -1.7546 C.ar    1  UNL1        0.0533
     16 C          60.0055   94.2475   -2.7559 C.ar    1  UNL1        0.0045
     17 C          59.2248   94.3887   -4.0288 C.ar    1  UNL1        0.0001
     18 C          58.0625   93.4804   -4.3005 C.ar    1  UNL1        0.0039
     19 C          57.6808   92.4308   -3.2992 C.ar    1  UNL1        0.0716
     20 C          58.4615   92.2896   -2.0262 C.ar    1  UNL1        0.0084
     21 C          56.5184   91.5224   -3.5708 C.3     1  UNL1        0.4186
     22 F          55.3561   90.6141   -3.8425 F       1  UNL1       -0.1659
     23 F          56.0999   91.6284   -2.1343 F       1  UNL1       -0.1659
     24 F          56.9370   91.4164   -5.0073 F       1  UNL1       -0.1659
     25 C          59.7683   89.0826    6.8234 C.3     1  UNL1        0.0721
     26 C          59.5375   89.1556    8.3037 C.3     1  UNL1        0.0174
     27 C          60.3680   88.3223    9.2342 C.3     1  UNL1        0.0048
     28 C          60.4838   86.8429    9.0149 C.3     1  UNL1        0.0216
     29 C          61.3144   86.0095    9.9454 C.3     1  UNL1        0.0937
     30 N          62.0290   86.6557   11.0952 N.am    1  UNL1       -0.2761
     31 C          62.8596   85.8223   12.0257 C.2     1  UNL1        0.2490
     32 O          63.5742   86.4683   13.1754 O.2     1  UNL1       -0.2699
     33 C          61.9132   88.1350   11.3144 C.3     1  UNL1        0.0937
     34 C          61.0827   88.9683   10.3839 C.3     1  UNL1        0.0216
     35 C          62.9754   84.3429   11.8064 C.ar    1  UNL1        0.0536
     36 C          62.3875   83.3887   12.8032 C.ar    1  UNL1        0.0045
     37 C          62.5033   81.9094   12.5839 C.ar    1  UNL1        0.0001
     38 C          63.2071   81.3843   11.3678 C.ar    1  UNL1        0.0000
     39 C          63.7951   82.3386   10.3710 C.ar    1  UNL1        0.0001
     40 C          63.6792   83.8179   10.5903 C.ar    1  UNL1        0.0045
@<TRIPOS>BOND
     1     6     7    2
     2     7    10    1
     3    10    11    1
     4    11    12   am
     5    12    13    2
     6    12    15    1
     7    15    16   ar
     8    16    17   ar
     9    17    18   ar
    10    18    19   ar
    11    19    21    1
    12    21    22    1
    13    21    23    1
    14    21    24    1
    15    19    20   ar
    16     7     8   am
    17     1     8    1
    18     1     2    1
    19     2     3    1
    20     3     4    1
    21     4    25    1
    22    25    26    1
    23    26    27    1
    24    27    28    1
    25    28    29    1
    26    29    30    1
    27    30    31   am
    28    31    32    2
    29    31    35    1
    30    35    36   ar
    31    36    37   ar
    32    37    38   ar
    33    38    39   ar
    34    39    40   ar
    35    30    33    1
    36    33    34    1
    37     4     5    1
    38    20    15   ar
    39     5     1    1
    40    34    27    1
    41    40    35   ar
    42    11    14    1
    43     8     9    1
