@<TRIPOS>MOLECULE
*****
 31 35 0 0 0
SMALL
GASTEIGER

@<TRIPOS>ATOM
      1 C          62.1668   89.7922   12.8539 C.3     1  UNL1        0.1211
      2 C          61.7944   89.2546   14.2038 C.3     1  UNL1        0.0804
      3 N          62.6055   89.6273   15.4093 N.3     1  UNL1       -0.2969
      4 C          63.7889   90.5375   15.2649 C.3     1  UNL1        0.0714
      5 C          64.1613   91.0751   13.9150 C.3     1  UNL1        0.0490
      6 C          63.3503   90.7024   12.7095 C.3     1  UNL1        0.1224
      7 O          62.6376   90.4192   11.4203 O.3     1  UNL1       -0.3492
      8 C          63.3476   91.1594   10.3258 C.3     1  UNL1        0.1687
      9 C          64.4992   91.9001   10.9384 C.ar    1  UNL1        0.0079
     10 C          65.5464   92.7952   10.3452 C.ar    1  UNL1        0.0299
     11 C          66.5954   93.4080   11.2251 C.ar    1  UNL1        0.1671
     12 F          67.6426   94.3030   10.6319 F       1  UNL1       -0.2018
     13 C          66.5970   93.1255   12.6983 C.ar    1  UNL1        0.1671
     14 F          67.6460   93.7383   13.5782 F       1  UNL1       -0.2018
     15 C          65.5497   92.2304   13.2916 C.ar    1  UNL1        0.0297
     16 C          64.5008   91.6177   12.4117 C.ar    1  UNL1        0.0033
     17 H          62.9513   88.7564   15.8122 H       1  UNL1        0.1233
     18 O          60.5166   90.4547   10.9597 O.2     1  UNL1       -0.2747
     19 C          61.3558   89.4195   11.6483 C.2     1  UNL1        0.2294
     20 N          61.3839   88.0117   11.1314 N.am    1  UNL1       -0.2769
     21 C          62.2231   86.9765   11.8201 C.3     1  UNL1        0.0758
     22 C          63.4185   86.6163   12.6514 C.3     1  UNL1        0.0215
     23 C          62.4811   85.5438   12.1816 C.3     1  UNL1        0.0215
     24 C          60.5729   87.6390    9.9259 C.3     1  UNL1        0.1209
     25 C          61.1305   86.6835    8.9130 C.ar    1  UNL1        0.0083
     26 C          62.5618   86.2443    9.0045 C.ar    1  UNL1       -0.0018
     27 C          63.1194   85.2888    7.9916 C.ar    1  UNL1       -0.0002
     28 C          62.2457   84.7724    6.8871 C.ar    1  UNL1        0.0008
     29 C          60.8143   85.2115    6.7955 C.ar    1  UNL1        0.0111
     30 C          60.2567   86.1670    7.8085 C.ar    1  UNL1        0.0553
     31 CL         58.8254   86.6062    7.7169 Cl      1  UNL1       -0.0825
@<TRIPOS>BOND
     1    18    19    2
     2     1    19    1
     3     1     2    1
     4     2     3    1
     5     3     4    1
     6     4     5    1
     7     6     5    1
     8     6     7    1
     9     7     8    1
    10     8     9    1
    11     9    10   ar
    12    10    11   ar
    13    11    12    1
    14    11    13   ar
    15    13    14    1
    16    13    15   ar
    17    15    16   ar
    18    19    20   am
    19    20    24    1
    20    24    25    1
    21    25    26   ar
    22    26    27   ar
    23    27    28   ar
    24    28    29   ar
    25    29    30   ar
    26    30    31    1
    27    20    21    1
    28    21    22    1
    29    22    23    1
    30     6     1    1
    31    16     9   ar
    32    30    25   ar
    33    23    21    1
    34    16     6    1
    35     3    17    1
@<TRIPOS>MOLECULE
*****
 31 35 0 0 0
SMALL
GASTEIGER

@<TRIPOS>ATOM
      1 C          62.3810   89.1757   12.1146 C.3     1  UNL1        0.1211
      2 C          61.5757   89.8146   11.0223 C.3     1  UNL1        0.0804
      3 N          61.0726   88.9852    9.8782 N.3     1  UNL1       -0.2969
      4 C          61.3748   87.5169    9.8265 C.3     1  UNL1        0.0714
      5 C          62.1800   86.8779   10.9188 C.3     1  UNL1        0.0490
      6 C          62.6832   87.7073   12.0629 C.3     1  UNL1        0.1224
      7 O          63.2505   88.4050   13.2635 O.3     1  UNL1       -0.3492
      8 C          63.9805   87.3874   14.0891 C.3     1  UNL1        0.1687
      9 C          63.8644   86.0608   13.3987 C.ar    1  UNL1        0.0079
     10 C          64.3852   84.6984   13.7485 C.ar    1  UNL1        0.0299
     11 C          64.1043   83.5335   12.8461 C.ar    1  UNL1        0.1671
     12 F          64.6251   82.1711   13.1959 F       1  UNL1       -0.2018
     13 C          63.3025   83.7312   11.5939 C.ar    1  UNL1        0.1671
     14 F          63.0216   82.5665   10.6914 F       1  UNL1       -0.2018
     15 C          62.7817   85.0937   11.2440 C.ar    1  UNL1        0.0297
     16 C          63.0626   86.2585   12.1464 C.ar    1  UNL1        0.0033
     17 H          61.4561   89.3949    9.0265 H       1  UNL1        0.1233
     18 O          62.5118   89.6455   14.6665 O.2     1  UNL1       -0.2747
     19 C          62.8842   90.0051   13.2587 C.2     1  UNL1        0.2294
     20 N          63.7598   91.1941   12.9949 N.am    1  UNL1       -0.2769
     21 C          64.1322   91.5537   11.5871 C.3     1  UNL1        0.0758
     22 C          65.1198   92.1155   10.6077 C.3     1  UNL1        0.0215
     23 C          63.7897   91.6147   10.1280 C.3     1  UNL1        0.0215
     24 C          64.2630   92.0235   14.1390 C.3     1  UNL1        0.1209
     25 C          65.7322   92.0787   14.4361 C.ar    1  UNL1        0.0083
     26 C          66.7285   91.8428   13.3399 C.ar    1  UNL1       -0.0018
     27 C          68.1977   91.8980   13.6370 C.ar    1  UNL1       -0.0002
     28 C          68.6707   92.1891   15.0303 C.ar    1  UNL1        0.0008
     29 C          67.6744   92.4250   16.1267 C.ar    1  UNL1        0.0111
     30 C          66.2052   92.3698   15.8296 C.ar    1  UNL1        0.0553
     31 CL         65.2089   92.6057   16.9258 Cl      1  UNL1       -0.0825
@<TRIPOS>BOND
     1    18    19    2
     2     1    19    1
     3     1     2    1
     4     2     3    1
     5     3     4    1
     6     4     5    1
     7     6     5    1
     8     6     7    1
     9     7     8    1
    10     8     9    1
    11     9    10   ar
    12    10    11   ar
    13    11    12    1
    14    11    13   ar
    15    13    14    1
    16    13    15   ar
    17    15    16   ar
    18    19    20   am
    19    20    24    1
    20    24    25    1
    21    25    26   ar
    22    26    27   ar
    23    27    28   ar
    24    28    29   ar
    25    29    30   ar
    26    30    31    1
    27    20    21    1
    28    21    22    1
    29    22    23    1
    30     6     1    1
    31    16     9   ar
    32    30    25   ar
    33    23    21    1
    34    16     6    1
    35     3    17    1
@<TRIPOS>MOLECULE
*****
 31 35 0 0 0
SMALL
GASTEIGER

@<TRIPOS>ATOM
      1 C          63.2577   88.4096   12.3951 C.3     1  UNL1        0.1211
      2 C          63.7649   87.2793   13.2407 C.3     1  UNL1        0.0804
      3 N          63.3164   85.8751   12.9630 N.3     1  UNL1       -0.2969
      4 C          62.3609   85.6013   11.8396 C.3     1  UNL1        0.0714
      5 C          61.8538   86.7316   10.9940 C.3     1  UNL1        0.0490
      6 C          62.3022   88.1358   11.2718 C.3     1  UNL1        0.1224
      7 O          62.6599   89.5841   11.4291 O.3     1  UNL1       -0.3492
      8 C          61.9271   90.3598   10.3750 C.3     1  UNL1        0.1687
      9 C          61.1165   89.3910    9.5660 C.ar    1  UNL1        0.0079
     10 C          60.1973   89.5827    8.3964 C.ar    1  UNL1        0.0299
     11 C          59.5098   88.4001    7.7809 C.ar    1  UNL1        0.1671
     12 F          58.5906   88.5918    6.6112 F       1  UNL1       -0.2018
     13 C          59.7416   87.0257    8.3351 C.ar    1  UNL1        0.1671
     14 F          59.0542   85.8430    7.7197 F       1  UNL1       -0.2018
     15 C          60.6609   86.8338    9.5048 C.ar    1  UNL1        0.0297
     16 C          61.3483   88.0165   10.1203 C.ar    1  UNL1        0.0033
     17 H          62.8738   85.5332   13.8160 H       1  UNL1        0.1233
     18 O          64.0408   90.7331   11.5358 O.2     1  UNL1       -0.2747
     19 C          63.7062   89.8139   12.6729 C.2     1  UNL1        0.2294
     20 N          63.8200   90.2988   14.0877 N.am    1  UNL1       -0.2769
     21 C          63.4853   89.3796   15.2249 C.3     1  UNL1        0.0758
     22 C          62.6932   89.0795   16.4628 C.3     1  UNL1        0.0215
     23 C          63.6978   88.0874   15.9565 C.3     1  UNL1        0.0215
     24 C          64.2684   91.7030   14.3655 C.3     1  UNL1        0.1209
     25 C          65.7136   91.9864   14.6497 C.ar    1  UNL1        0.0083
     26 C          66.7383   91.8159   13.5676 C.ar    1  UNL1       -0.0018
     27 C          68.1836   92.0994   13.8519 C.ar    1  UNL1       -0.0002
     28 C          68.6042   92.5533   15.2182 C.ar    1  UNL1        0.0008
     29 C          67.5796   92.7238   16.3004 C.ar    1  UNL1        0.0111
     30 C          66.1343   92.4404   16.0162 C.ar    1  UNL1        0.0553
     31 CL         65.1096   92.6109   17.0983 Cl      1  UNL1       -0.0825
@<TRIPOS>BOND
     1    18    19    2
     2     1    19    1
     3     1     2    1
     4     2     3    1
     5     3     4    1
     6     4     5    1
     7     6     5    1
     8     6     7    1
     9     7     8    1
    10     8     9    1
    11     9    10   ar
    12    10    11   ar
    13    11    12    1
    14    11    13   ar
    15    13    14    1
    16    13    15   ar
    17    15    16   ar
    18    19    20   am
    19    20    24    1
    20    24    25    1
    21    25    26   ar
    22    26    27   ar
    23    27    28   ar
    24    28    29   ar
    25    29    30   ar
    26    30    31    1
    27    20    21    1
    28    21    22    1
    29    22    23    1
    30     6     1    1
    31    16     9   ar
    32    30    25   ar
    33    23    21    1
    34    16     6    1
    35     3    17    1
@<TRIPOS>MOLECULE
*****
 31 35 0 0 0
SMALL
GASTEIGER

@<TRIPOS>ATOM
      1 C          62.7701   86.2879   10.5933 C.3     1  UNL1        0.1211
      2 C          62.8631   86.5670    9.1224 C.3     1  UNL1        0.0804
      3 N          62.9544   85.4305    8.1478 N.3     1  UNL1       -0.2969
      4 C          62.9527   84.0149    8.6440 C.3     1  UNL1        0.0714
      5 C          62.8597   83.7359   10.1149 C.3     1  UNL1        0.0490
      6 C          62.7684   84.8724   11.0895 C.3     1  UNL1        0.1224
      7 O          62.6719   85.9004   12.1776 O.3     1  UNL1       -0.3492
      8 C          62.5994   85.1797   13.4911 C.3     1  UNL1        0.1687
      9 C          62.6511   83.7063   13.2149 C.ar    1  UNL1        0.0079
     10 C          62.6166   82.5130   14.1231 C.ar    1  UNL1        0.0299
     11 C          62.6865   81.1297   13.5471 C.ar    1  UNL1        0.1671
     12 F          62.6520   79.9365   14.4553 F       1  UNL1       -0.2018
     13 C          62.7910   80.9398   12.0629 C.ar    1  UNL1        0.1671
     14 F          62.8609   79.5566   11.4868 F       1  UNL1       -0.2018
     15 C          62.8255   82.1331   11.1546 C.ar    1  UNL1        0.0297
     16 C          62.7556   83.5163   11.7306 C.ar    1  UNL1        0.0033
     17 H          63.8217   85.5586    7.6264 H       1  UNL1        0.1233
     18 O          63.6058   87.4785   12.7461 O.2     1  UNL1       -0.2747
     19 C          62.6788   87.4245   11.5680 C.2     1  UNL1        0.2294
     20 N          61.6606   88.5069   11.3646 N.am    1  UNL1       -0.2769
     21 C          60.7336   88.4529   10.1865 C.3     1  UNL1        0.0758
     22 C          60.1734   89.0802    8.9445 C.3     1  UNL1        0.0215
     23 C          59.6883   87.7319    9.3880 C.3     1  UNL1        0.0215
     24 C          61.5692   89.6434   12.3393 C.3     1  UNL1        0.1209
     25 C          62.8138   90.3549   12.7805 C.ar    1  UNL1        0.0083
     26 C          63.2698   90.2545   14.2060 C.ar    1  UNL1       -0.0018
     27 C          64.5144   90.9660   14.6472 C.ar    1  UNL1       -0.0002
     28 C          65.3031   91.7780   13.6630 C.ar    1  UNL1        0.0008
     29 C          64.8471   91.8784   12.2374 C.ar    1  UNL1        0.0111
     30 C          63.6025   91.1669   11.7962 C.ar    1  UNL1        0.0553
     31 CL         63.1465   91.2674   10.3707 Cl      1  UNL1       -0.0825
@<TRIPOS>BOND
     1    18    19    2
     2     1    19    1
     3     1     2    1
     4     2     3    1
     5     3     4    1
     6     4     5    1
     7     6     5    1
     8     6     7    1
     9     7     8    1
    10     8     9    1
    11     9    10   ar
    12    10    11   ar
    13    11    12    1
    14    11    13   ar
    15    13    14    1
    16    13    15   ar
    17    15    16   ar
    18    19    20   am
    19    20    24    1
    20    24    25    1
    21    25    26   ar
    22    26    27   ar
    23    27    28   ar
    24    28    29   ar
    25    29    30   ar
    26    30    31    1
    27    20    21    1
    28    21    22    1
    29    22    23    1
    30     6     1    1
    31    16     9   ar
    32    30    25   ar
    33    23    21    1
    34    16     6    1
    35     3    17    1
@<TRIPOS>MOLECULE
*****
 31 35 0 0 0
SMALL
GASTEIGER

@<TRIPOS>ATOM
      1 C          63.8830   86.8253   13.6116 C.3     1  UNL1        0.1211
      2 C          64.5107   87.8223   14.5399 C.3     1  UNL1        0.0804
      3 N          64.2628   89.2887   14.3444 N.3     1  UNL1       -0.2969
      4 C          63.3871   89.7580   13.2206 C.3     1  UNL1        0.0714
      5 C          62.7594   88.7609   12.2923 C.3     1  UNL1        0.0490
      6 C          63.0073   87.2946   12.4878 C.3     1  UNL1        0.1224
      7 O          63.1632   85.8043   12.5584 O.3     1  UNL1       -0.3492
      8 C          62.3657   85.2013   11.4402 C.3     1  UNL1        0.1687
      9 C          61.7169   86.3189   10.6784 C.ar    1  UNL1        0.0079
     10 C          60.8164   86.3257    9.4789 C.ar    1  UNL1        0.0299
     11 C          60.3123   87.6262    8.9268 C.ar    1  UNL1        0.1671
     12 F          59.4118   87.6330    7.7273 F       1  UNL1       -0.2018
     13 C          60.7089   88.9198    9.5743 C.ar    1  UNL1        0.1671
     14 F          60.2048   90.2202    9.0223 F       1  UNL1       -0.2018
     15 C          61.6095   88.9130   10.7739 C.ar    1  UNL1        0.0297
     16 C          62.1135   87.6126   11.3259 C.ar    1  UNL1        0.0033
     17 H          65.1743   89.7261   14.2097 H       1  UNL1        0.1233
     18 O          64.8407   84.5703   12.7468 O.2     1  UNL1       -0.2747
     19 C          64.1309   85.3588   13.8071 C.2     1  UNL1        0.2294
     20 N          63.6691   84.6810   15.0630 N.am    1  UNL1       -0.2769
     21 C          62.9593   85.4696   16.1234 C.3     1  UNL1        0.0758
     22 C          63.0050   86.3446   17.3409 C.3     1  UNL1        0.0215
     23 C          61.6842   85.9605   16.7425 C.3     1  UNL1        0.0215
     24 C          63.9170   83.2146   15.2586 C.3     1  UNL1        0.1209
     25 C          63.0846   82.2083   14.5207 C.ar    1  UNL1        0.0083
     26 C          61.6344   82.0381   14.8642 C.ar    1  UNL1       -0.0018
     27 C          60.8020   81.0317   14.1264 C.ar    1  UNL1       -0.0002
     28 C          61.4198   80.1957   13.0450 C.ar    1  UNL1        0.0008
     29 C          62.8700   80.3659   12.7015 C.ar    1  UNL1        0.0111
     30 C          63.7024   81.3722   13.4393 C.ar    1  UNL1        0.0553
     31 CL         65.1525   81.5425   13.0958 Cl      1  UNL1       -0.0825
@<TRIPOS>BOND
     1    18    19    2
     2     1    19    1
     3     1     2    1
     4     2     3    1
     5     3     4    1
     6     4     5    1
     7     6     5    1
     8     6     7    1
     9     7     8    1
    10     8     9    1
    11     9    10   ar
    12    10    11   ar
    13    11    12    1
    14    11    13   ar
    15    13    14    1
    16    13    15   ar
    17    15    16   ar
    18    19    20   am
    19    20    24    1
    20    24    25    1
    21    25    26   ar
    22    26    27   ar
    23    27    28   ar
    24    28    29   ar
    25    29    30   ar
    26    30    31    1
    27    20    21    1
    28    21    22    1
    29    22    23    1
    30     6     1    1
    31    16     9   ar
    32    30    25   ar
    33    23    21    1
    34    16     6    1
    35     3    17    1
@<TRIPOS>MOLECULE
*****
 31 35 0 0 0
SMALL
GASTEIGER

@<TRIPOS>ATOM
      1 C          62.8021   87.3576   11.5133 C.3     1  UNL1        0.1211
      2 C          62.3426   87.8862   10.1869 C.3     1  UNL1        0.0804
      3 N          61.9482   86.9350    9.0963 N.3     1  UNL1       -0.2969
      4 C          62.0134   85.4550    9.3320 C.3     1  UNL1        0.0714
      5 C          62.4729   84.9264   10.6584 C.3     1  UNL1        0.0490
      6 C          62.8673   85.8776   11.7490 C.3     1  UNL1        0.1224
      7 O          63.2912   86.7025   12.9281 O.3     1  UNL1       -0.3492
      8 C          63.6695   85.7659   14.0370 C.3     1  UNL1        0.1687
      9 C          63.4795   84.3622   13.5434 C.ar    1  UNL1        0.0079
     10 C          63.6938   83.0302   14.1988 C.ar    1  UNL1        0.0299
     11 C          63.4123   81.7671   13.4402 C.ar    1  UNL1        0.1671
     12 F          63.6267   80.4350   14.0956 F       1  UNL1       -0.2018
     13 C          62.9165   81.8361   12.0262 C.ar    1  UNL1        0.1671
     14 F          62.6351   80.5731   11.2676 F       1  UNL1       -0.2018
     15 C          62.7022   83.1683   11.3707 C.ar    1  UNL1        0.0297
     16 C          62.9836   84.4313   12.1293 C.ar    1  UNL1        0.0033
     17 H          62.5535   87.1332    8.2996 H       1  UNL1        0.1233
     18 O          64.4250   88.0434   13.4228 O.2     1  UNL1       -0.2747
     19 C          63.1965   88.3088   12.6040 C.2     1  UNL1        0.2294
     20 N          62.3624   89.5255   12.8759 N.am    1  UNL1       -0.2769
     21 C          61.1338   89.7909   12.0571 C.3     1  UNL1        0.0758
     22 C          60.4636   90.4824   10.9071 C.3     1  UNL1        0.0215
     23 C          59.6763   89.5591   11.7890 C.3     1  UNL1        0.0215
     24 C          62.7567   90.4767   13.9666 C.3     1  UNL1        0.1209
     25 C          64.0335   91.2563   13.8566 C.ar    1  UNL1        0.0083
     26 C          64.5796   91.6143   12.5062 C.ar    1  UNL1       -0.0018
     27 C          65.8564   92.3938   12.3961 C.ar    1  UNL1       -0.0002
     28 C          66.5870   92.8154   13.6365 C.ar    1  UNL1        0.0008
     29 C          66.0409   92.4575   14.9869 C.ar    1  UNL1        0.0111
     30 C          64.7641   91.6779   15.0970 C.ar    1  UNL1        0.0553
     31 CL         64.2179   91.3199   16.4473 Cl      1  UNL1       -0.0825
@<TRIPOS>BOND
     1    18    19    2
     2     1    19    1
     3     1     2    1
     4     2     3    1
     5     3     4    1
     6     4     5    1
     7     6     5    1
     8     6     7    1
     9     7     8    1
    10     8     9    1
    11     9    10   ar
    12    10    11   ar
    13    11    12    1
    14    11    13   ar
    15    13    14    1
    16    13    15   ar
    17    15    16   ar
    18    19    20   am
    19    20    24    1
    20    24    25    1
    21    25    26   ar
    22    26    27   ar
    23    27    28   ar
    24    28    29   ar
    25    29    30   ar
    26    30    31    1
    27    20    21    1
    28    21    22    1
    29    22    23    1
    30     6     1    1
    31    16     9   ar
    32    30    25   ar
    33    23    21    1
    34    16     6    1
    35     3    17    1
@<TRIPOS>MOLECULE
*****
 31 35 0 0 0
SMALL
GASTEIGER

@<TRIPOS>ATOM
      1 C          64.0160   87.2514   13.7073 C.3     1  UNL1        0.1211
      2 C          64.6639   88.3443   14.5047 C.3     1  UNL1        0.0804
      3 N          64.4046   89.7804   14.1578 N.3     1  UNL1       -0.2969
      4 C          63.4974   90.1236   13.0135 C.3     1  UNL1        0.0714
      5 C          62.8496   89.0307   12.2162 C.3     1  UNL1        0.0490
      6 C          63.1089   87.5946   12.5631 C.3     1  UNL1        0.1224
      7 O          63.2729   86.1211   12.7908 O.3     1  UNL1       -0.3492
      8 C          62.4486   85.3991   11.7665 C.3     1  UNL1        0.1687
      9 C          61.7751   86.4264   10.9055 C.ar    1  UNL1        0.0079
     10 C          60.8431   86.3016    9.7370 C.ar    1  UNL1        0.0299
     11 C          60.3190   87.5337    9.0606 C.ar    1  UNL1        0.1671
     12 F          59.3870   87.4089    7.8921 F       1  UNL1       -0.2018
     13 C          60.7271   88.8905    9.5530 C.ar    1  UNL1        0.1671
     14 F          60.2031   90.1226    8.8767 F       1  UNL1       -0.2018
     15 C          61.6592   89.0154   10.7216 C.ar    1  UNL1        0.0297
     16 C          62.1832   87.7833   11.3979 C.ar    1  UNL1        0.0033
     17 H          65.3104   90.2018   13.9520 H       1  UNL1        0.1233
     18 O          64.9059   84.9020   13.0450 O.2     1  UNL1       -0.2747
     19 C          64.2753   85.8152   14.0541 C.2     1  UNL1        0.2294
     20 N          63.9040   85.2924   15.4101 N.am    1  UNL1       -0.2769
     21 C          63.2733   86.2057   16.4193 C.3     1  UNL1        0.0758
     22 C          63.1297   87.5701   17.0256 C.3     1  UNL1        0.0215
     23 C          62.3248   86.4231   17.5607 C.3     1  UNL1        0.0215
     24 C          64.1632   83.8563   15.7570 C.3     1  UNL1        0.1209
     25 C          63.5478   82.7632   14.9346 C.ar    1  UNL1        0.0083
     26 C          64.3939   81.6247   14.4467 C.ar    1  UNL1       -0.0018
     27 C          63.7785   80.5316   13.6243 C.ar    1  UNL1       -0.0002
     28 C          62.3170   80.5769   13.2898 C.ar    1  UNL1        0.0008
     29 C          61.4708   81.7154   13.7777 C.ar    1  UNL1        0.0111
     30 C          62.0862   82.8085   14.6001 C.ar    1  UNL1        0.0553
     31 CL         61.2401   83.9470   15.0879 Cl      1  UNL1       -0.0825
@<TRIPOS>BOND
     1    18    19    2
     2     1    19    1
     3     1     2    1
     4     2     3    1
     5     3     4    1
     6     4     5    1
     7     6     5    1
     8     6     7    1
     9     7     8    1
    10     8     9    1
    11     9    10   ar
    12    10    11   ar
    13    11    12    1
    14    11    13   ar
    15    13    14    1
    16    13    15   ar
    17    15    16   ar
    18    19    20   am
    19    20    24    1
    20    24    25    1
    21    25    26   ar
    22    26    27   ar
    23    27    28   ar
    24    28    29   ar
    25    29    30   ar
    26    30    31    1
    27    20    21    1
    28    21    22    1
    29    22    23    1
    30     6     1    1
    31    16     9   ar
    32    30    25   ar
    33    23    21    1
    34    16     6    1
    35     3    17    1
@<TRIPOS>MOLECULE
*****
 31 35 0 0 0
SMALL
GASTEIGER

@<TRIPOS>ATOM
      1 C          63.3581   88.6552   12.4266 C.3     1  UNL1        0.1211
      2 C          64.0243   89.9611   12.7439 C.3     1  UNL1        0.0804
      3 N          63.7460   91.1695   11.9000 N.3     1  UNL1       -0.2969
      4 C          62.8014   91.0720   10.7388 C.3     1  UNL1        0.0714
      5 C          62.1352   89.7661   10.4216 C.3     1  UNL1        0.0490
      6 C          62.4135   88.5577   11.2655 C.3     1  UNL1        0.1224
      7 O          62.5931   87.2711   12.0156 O.3     1  UNL1       -0.3492
      8 C          61.7413   86.2273   11.3562 C.3     1  UNL1        0.1687
      9 C          61.0352   86.8687   10.1985 C.ar    1  UNL1        0.0079
     10 C          60.0677   86.3274    9.1882 C.ar    1  UNL1        0.0299
     11 C          59.5155   87.2263    8.1218 C.ar    1  UNL1        0.1671
     12 F          58.5480   86.6850    7.1115 F       1  UNL1       -0.2018
     13 C          59.9310   88.6665    8.0658 C.ar    1  UNL1        0.1671
     14 F          59.3789   89.5654    6.9994 F       1  UNL1       -0.2018
     15 C          60.8986   89.2079    9.0761 C.ar    1  UNL1        0.0297
     16 C          61.4507   88.3090   10.1425 C.ar    1  UNL1        0.0033
     17 H          64.6424   91.4797   11.5250 H       1  UNL1        0.1233
     18 O          63.7847   86.1002   12.6265 O.2     1  UNL1       -0.2747
     19 C          63.6364   87.4467   13.2706 C.2     1  UNL1        0.2294
     20 N          63.7665   87.5849   14.7585 N.am    1  UNL1       -0.2769
     21 C          63.6182   88.9315   15.4025 C.3     1  UNL1        0.0758
     22 C          62.8016   89.9108   16.1925 C.3     1  UNL1        0.0215
     23 C          64.1780   90.2846   15.7280 C.3     1  UNL1        0.0215
     24 C          64.0448   86.3765   15.6024 C.3     1  UNL1        0.1209
     25 C          63.7392   85.0062   15.0742 C.ar    1  UNL1        0.0083
     26 C          62.3486   84.4543   15.1808 C.ar    1  UNL1       -0.0018
     27 C          62.0430   83.0840   14.6525 C.ar    1  UNL1       -0.0002
     28 C          63.1281   82.2657   14.0178 C.ar    1  UNL1        0.0008
     29 C          64.5188   82.8176   13.9113 C.ar    1  UNL1        0.0111
     30 C          64.8244   84.1879   14.4395 C.ar    1  UNL1        0.0553
     31 CL         66.2151   84.7398   14.3330 Cl      1  UNL1       -0.0825
@<TRIPOS>BOND
     1    18    19    2
     2     1    19    1
     3     1     2    1
     4     2     3    1
     5     3     4    1
     6     4     5    1
     7     6     5    1
     8     6     7    1
     9     7     8    1
    10     8     9    1
    11     9    10   ar
    12    10    11   ar
    13    11    12    1
    14    11    13   ar
    15    13    14    1
    16    13    15   ar
    17    15    16   ar
    18    19    20   am
    19    20    24    1
    20    24    25    1
    21    25    26   ar
    22    26    27   ar
    23    27    28   ar
    24    28    29   ar
    25    29    30   ar
    26    30    31    1
    27    20    21    1
    28    21    22    1
    29    22    23    1
    30     6     1    1
    31    16     9   ar
    32    30    25   ar
    33    23    21    1
    34    16     6    1
    35     3    17    1
