@<TRIPOS>MOLECULE
*****
 33 35 0 0 0
SMALL
GASTEIGER

@<TRIPOS>ATOM
      1 N          63.8179   86.8324   13.9655 N.pl3   1  UNL1       -0.2916
      2 C          64.5150   87.7810   14.8953 C.3     1  UNL1        0.1030
      3 C          64.2046   88.9182   13.9677 C.3     1  UNL1        0.1174
      4 C          63.5075   87.9697   13.0380 C.3     1  UNL1        0.1030
      5 C          62.9976   82.4078   13.9609 C.ar    1  UNL1        0.0900
      6 C          62.6988   83.2247   15.1829 C.ar    1  UNL1        0.0207
      7 C          62.9722   84.6995   15.1844 C.ar    1  UNL1        0.1001
      8 C          63.5444   85.3575   13.9640 C.ar    1  UNL1        0.1409
      9 N          63.8432   84.5407   12.7419 N.ar    1  UNL1       -0.2341
     10 C          63.5698   83.0658   12.7404 C.ar    1  UNL1        0.0670
     11 C          63.8686   82.2489   11.5183 C.3     1  UNL1        0.0524
     12 C          62.7242   80.9329   13.9593 C.2     1  UNL1        0.3424
     13 O          63.7800   79.9739   14.4233 O.2     1  UNL1       -0.2449
     14 O          61.3949   80.4171   13.4937 O.3     1  UNL1       -0.4454
     15 C          59.0185   79.8014   14.3446 C.3     1  UNL1        0.0513
     16 C          60.1452   80.7859   14.2368 C.3     1  UNL1        0.2089
     17 C          62.6734   85.5164   16.4066 C.1     1  UNL1        0.1032
     18 N          62.3747   86.3332   17.6286 N.1     1  UNL1       -0.1907
     19 C          64.4780   90.3930   13.9693 C.2     1  UNL1        0.2435
     20 O          63.6778   91.3032   14.8531 O.2     1  UNL1       -0.2734
     21 N          65.5516   90.9577   13.0871 N.am    1  UNL1       -0.1884
     22 H          66.0769   90.3603   12.5070 H       1  UNL1        0.1762
     23 S          65.8251   92.4326   13.0886 S.O2    1  UNL1        0.0602
     24 O          67.0136   92.2113   13.9766 O.2     1  UNL1       -0.1541
     25 O          64.6365   92.6538   12.2007 O.2     1  UNL1       -0.1541
     26 C          66.0985   93.9074   13.0902 C.3     1  UNL1        0.1988
     27 C          66.4106   94.6137   11.8042 C.ar    1  UNL1        0.0032
     28 C          66.1216   96.0789   11.6640 C.ar    1  UNL1       -0.0028
     29 C          66.4337   96.7852   10.3781 C.ar    1  UNL1       -0.0045
     30 C          67.0348   96.0263    9.2322 C.ar    1  UNL1       -0.0219
     31 C          67.3469   96.7326    7.9463 C.3     1  UNL1        0.0310
     32 C          67.3237   94.5611    9.3725 C.ar    1  UNL1       -0.0045
     33 C          67.0116   93.8548   10.6585 C.ar    1  UNL1       -0.0028
@<TRIPOS>BOND
     1    15    16    1
     2    16    14    1
     3    14    12    1
     4    12    13    2
     5    12     5    1
     6     5     6   ar
     7     6     7   ar
     8     7    17    1
     9    17    18    3
    10     7     8   ar
    11     8     1    1
    12     1     2    1
    13     2     3    1
    14     3    19    1
    15    19    20    2
    16    19    21   am
    17    21    23    1
    18    23    24    2
    19    23    25    2
    20    23    26    1
    21    26    27    1
    22    27    28   ar
    23    28    29   ar
    24    29    30   ar
    25    30    31    1
    26    30    32   ar
    27    32    33   ar
    28     3     4    1
    29     8     9   ar
    30     9    10   ar
    31    10    11    1
    32    10     5   ar
    33     4     1    1
    34    33    27   ar
    35    21    22    1
