@<TRIPOS>MOLECULE
*****
 40 44 0 0 0
SMALL
GASTEIGER

@<TRIPOS>ATOM
      1 N          63.8538   88.9654   15.5551 N.ar    1  UNL1       -0.2716
      2 C          63.2995   89.4169   16.8738 C.ar    1  UNL1        0.2649
      3 O          63.3139   90.8728   17.2345 O.2     1  UNL1       -0.2666
      4 C          62.7308   88.4124   17.8317 C.ar    1  UNL1        0.0611
      5 C          62.7164   86.9565   17.4710 C.ar    1  UNL1        0.0064
      6 C          63.2707   86.5050   16.1523 C.ar    1  UNL1        0.0177
      7 C          63.2563   85.0491   15.7916 C.ar    1  UNL1        0.0216
      8 C          63.8106   84.5977   14.4729 C.ar    1  UNL1        0.1253
      9 C          64.3794   85.6021   13.5150 C.ar    1  UNL1        0.0217
     10 C          64.3938   87.0580   13.8757 C.ar    1  UNL1        0.0190
     11 C          63.8395   87.5095   15.1944 C.ar    1  UNL1        0.0670
     12 C          63.6305   90.3924   13.3955 C.ar    1  UNL1        0.1547
     13 C          64.1992   91.3968   12.4376 C.ar    1  UNL1        0.0381
     14 C          65.5600   91.9787   12.6813 C.ar    1  UNL1       -0.0008
     15 C          66.3522   91.5562   13.8830 C.ar    1  UNL1       -0.0202
     16 C          67.7130   92.1382   14.1267 C.3     1  UNL1        0.0311
     17 C          65.7835   90.5518   14.8409 C.ar    1  UNL1        0.0164
     18 C          64.4226   89.9699   14.5972 C.ar    1  UNL1        0.1003
     19 C          66.1287   92.9832   11.7233 C.ar    1  UNL1       -0.0003
     20 C          65.8582   94.4453   11.9214 C.ar    1  UNL1       -0.0000
     21 C          66.4270   95.4497   10.9635 C.ar    1  UNL1       -0.0001
     22 C          67.2662   94.9921    9.8075 C.ar    1  UNL1        0.0039
     23 C          67.5367   93.5300    9.6094 C.ar    1  UNL1        0.0714
     24 C          66.9679   92.5256   10.5674 C.ar    1  UNL1        0.0038
     25 C          68.3759   93.0724    8.4534 C.3     1  UNL1        0.4186
     26 F          69.2150   92.6148    7.2974 F       1  UNL1       -0.1659
     27 F          67.8126   94.1757    7.6077 F       1  UNL1       -0.1659
     28 F          68.9391   91.9690    9.2991 F       1  UNL1       -0.1659
     29 C          61.8396   89.4671   11.7563 C.3     1  UNL1        0.2525
     30 O          62.2696   89.8104   13.1518 O.3     1  UNL1       -0.4700
     31 S          63.7962   83.1418   14.1122 S.O2    1  UNL1        0.0748
     32 O          64.1344   82.7872   15.5299 O.2     1  UNL1       -0.1499
     33 O          63.4581   83.4963   12.6945 O.2     1  UNL1       -0.1499
     34 N          63.7819   81.6859   13.7515 N.pl3   1  UNL1       -0.1962
     35 H          64.6155   81.2376   13.4807 H       1  UNL1        0.1754
     36 C          62.4973   80.9130   13.8033 C.ar    1  UNL1        0.1893
     37 C          61.1672   81.4426   14.2508 C.ar    1  UNL1        0.0823
     38 C          60.1652   80.3318   14.1408 C.ar    1  UNL1        0.2152
     39 O          60.8761   79.1156   13.6254 O.2     1  UNL1       -0.3489
     40 N          62.3174   79.4748   13.4168 N.ar    1  UNL1       -0.0605
@<TRIPOS>BOND
     1    29    30    1
     2    30    12    1
     3    12    13   ar
     4    13    14   ar
     5    14    19    1
     6    19    20   ar
     7    20    21   ar
     8    21    22   ar
     9    22    23   ar
    10    23    25    1
    11    25    26    1
    12    25    27    1
    13    25    28    1
    14    23    24   ar
    15    14    15   ar
    16    15    16    1
    17    15    17   ar
    18    17    18   ar
    19    18     1    1
    20     1     2   ar
    21     2     3    2
    22     2     4   ar
    23     4     5   ar
    24     5     6   ar
    25     6     7   ar
    26     7     8   ar
    27     8    31    1
    28    31    32    2
    29    31    33    2
    30    31    34    1
    31    34    36    1
    32    36    37   ar
    33    37    38   ar
    34    38    39   ar
    35    39    40   ar
    36     8     9   ar
    37     9    10   ar
    38    10    11   ar
    39    18    12   ar
    40    11     1   ar
    41    24    19   ar
    42    11     6   ar
    43    40    36   ar
    44    34    35    1
