@<TRIPOS>MOLECULE
*****
 39 43 0 0 0
SMALL
GASTEIGER

@<TRIPOS>ATOM
      1 C          63.0375   83.6491   13.6728 C.3     1  UNL1        0.2246
      2 C          62.4994   83.2646   12.3264 C.2     1  UNL1        0.0436
      3 C          62.2146   81.8250   12.0159 C.2     1  UNL1        0.0288
      4 C          62.4679   80.7699   13.0515 C.2     1  UNL1        0.0896
      5 N          63.0060   81.1544   14.3979 N.am    1  UNL1       -0.1770
      6 C          63.2908   82.5941   14.7084 C.2     1  UNL1        0.2627
      7 O          63.8289   82.9786   16.0547 O.2     1  UNL1       -0.2719
      8 C          63.0183   88.1415   17.5332 C.3     1  UNL1        0.0312
      9 C          63.5127   88.3461   16.1319 C.2     1  UNL1        0.0136
     10 C          64.0066   89.6951   15.7002 C.2     1  UNL1        0.0107
     11 C          64.5010   89.8997   14.2990 C.2     1  UNL1        0.0510
     12 C          64.5016   88.7552   13.3292 C.2     1  UNL1        0.0613
     13 C          64.0077   87.4063   13.7608 C.2     1  UNL1        0.2246
     14 N          63.8897   86.1004   13.0323 N.2     1  UNL1       -0.0378
     15 C          63.3223   85.0887   13.9834 C.2     1  UNL1        0.3605
     16 N          63.0897   85.7693   15.2997 N.2     1  UNL1       -0.0547
     17 C          63.5133   87.2017   15.1622 C.3     1  UNL1        0.2976
     18 N          64.9948   91.2488   13.8674 N.pl3   1  UNL1       -0.3046
     19 C          65.7477   92.1158   14.8324 C.3     1  UNL1        0.1081
     20 C          66.2416   93.4648   14.4008 C.3     1  UNL1        0.0946
     21 N          65.9825   93.9468   13.0042 N.3     1  UNL1       -0.2568
     22 C          65.2296   93.0797   12.0391 C.3     1  UNL1        0.0946
     23 C          64.7358   91.7307   12.4707 C.3     1  UNL1        0.1081
     24 C          66.4763   95.2957   12.5725 C.3     1  UNL1        0.1796
     25 C          66.1117   95.8301   11.2191 C.1     1  UNL1        0.0912
     26 N          65.7471   96.3645    9.8658 N.1     1  UNL1       -0.1944
     27 N          62.2460   84.3196   11.2907 N.pl3   1  UNL1       -0.3329
     28 H          61.4895   84.9409   11.3957 H       1  UNL1        0.1466
     29 C          63.1452   84.4282   10.0951 C.3     1  UNL1        0.1211
     30 C          62.6794   85.1579    8.8701 C.3     1  UNL1        0.1522
     31 O          63.0420   84.6448    7.5081 O.3     1  UNL1       -0.3783
     32 H          63.5758   83.8397    7.5974 H       1  UNL1        0.2109
     33 C          61.8510   86.4009    9.0073 C.ar    1  UNL1        0.0067
     34 C          60.4735   86.4531    8.4160 C.ar    1  UNL1       -0.0018
     35 C          59.6451   87.6961    8.5531 C.ar    1  UNL1        0.0006
     36 C          60.1942   88.8868    9.2816 C.ar    1  UNL1        0.0114
     37 C          61.5717   88.8345    9.8729 C.ar    1  UNL1        0.0574
     38 CL         62.1208   90.0253   10.6013 Cl      1  UNL1       -0.0823
     39 C          62.4001   87.5916    9.7357 C.ar    1  UNL1        0.0095
@<TRIPOS>BOND
     1     8     9    1
     2     9    10    2
     3    10    11    1
     4    11    18    1
     5    18    19    1
     6    19    20    1
     7    20    21    1
     8    21    24    1
     9    24    25    1
    10    25    26    3
    11    21    22    1
    12    22    23    1
    13    11    12    2
    14    12    13    1
    15    13    14    2
    16    14    15    1
    17    15     1    1
    18     1     2    1
    19     2    27    1
    20    27    29    1
    21    29    30    1
    22    30    31    1
    23    30    33    1
    24    33    34   ar
    25    34    35   ar
    26    35    36   ar
    27    36    37   ar
    28    37    38    1
    29    37    39   ar
    30     2     3    2
    31     3     4    1
    32     4     5    2
    33     5     6    1
    34     6     7    2
    35    15    16    2
    36    16    17    1
    37    17     9    1
    38    23    18    1
    39    17    13    1
    40     6     1    1
    41    39    33   ar
    42    27    28    1
    43    31    32    1
@<TRIPOS>MOLECULE
*****
 39 43 0 0 0
SMALL
GASTEIGER

@<TRIPOS>ATOM
      1 C          65.1600   91.5895   13.5387 C.3     1  UNL1        0.2246
      2 C          64.9493   92.0563   12.1289 C.2     1  UNL1        0.0436
      3 C          65.3996   93.4267   11.7173 C.2     1  UNL1        0.0288
      4 C          66.0607   94.3302   12.7156 C.2     1  UNL1        0.0896
      5 N          66.2715   93.8635   14.1254 N.am    1  UNL1       -0.1770
      6 C          65.8211   92.4931   14.5369 C.2     1  UNL1        0.2627
      7 O          66.0319   92.0264   15.9468 O.2     1  UNL1       -0.2719
      8 C          63.0574   87.9412   17.7045 C.3     1  UNL1        0.0312
      9 C          63.3421   87.4325   16.3224 C.2     1  UNL1        0.0136
     10 C          63.0944   85.9915   15.9878 C.2     1  UNL1        0.0107
     11 C          63.3790   85.4828   14.6058 C.2     1  UNL1        0.0510
     12 C          63.9114   86.4151   13.5581 C.2     1  UNL1        0.0613
     13 C          64.1590   87.8562   13.8927 C.2     1  UNL1        0.2246
     14 N          64.6753   89.0022   13.0741 N.2     1  UNL1       -0.0378
     15 C          64.7097   90.2192   13.9503 C.2     1  UNL1        0.3605
     16 N          64.2147   89.8253   15.3104 N.2     1  UNL1       -0.0547
     17 C          63.8744   88.3649   15.2748 C.3     1  UNL1        0.2976
     18 N          63.1314   84.0416   14.2712 N.pl3   1  UNL1       -0.3046
     19 C          64.0323   83.3303   13.3056 C.3     1  UNL1        0.1081
     20 C          63.7847   81.8892   12.9711 C.3     1  UNL1        0.0946
     21 N          62.6360   81.1595   13.6020 N.3     1  UNL1       -0.2568
     22 C          61.7351   81.8708   14.5675 C.3     1  UNL1        0.0946
     23 C          61.9827   83.3119   14.9021 C.3     1  UNL1        0.1081
     24 C          62.3883   79.7184   13.2675 C.3     1  UNL1        0.1796
     25 C          62.5909   79.2287   11.8642 C.1     1  UNL1        0.0912
     26 N          62.7935   78.7390   10.4609 N.1     1  UNL1       -0.1944
     27 N          64.2882   91.1528   11.1306 N.pl3   1  UNL1       -0.3329
     28 H          64.8295   90.5206   10.6047 H       1  UNL1        0.1466
     29 C          62.8024   91.2125   10.9335 C.3     1  UNL1        0.1211
     30 C          61.9407   90.0666   11.3746 C.3     1  UNL1        0.1522
     31 O          61.5040   89.9643   12.8060 O.3     1  UNL1       -0.3783
     32 H          61.8627   90.7129   13.3078 H       1  UNL1        0.2109
     33 C          61.5158   89.0232   10.3844 C.ar    1  UNL1        0.0067
     34 C          60.2644   89.2174    9.5805 C.ar    1  UNL1       -0.0018
     35 C          59.8395   88.1739    8.5903 C.ar    1  UNL1        0.0006
     36 C          60.6660   86.9361    8.4038 C.ar    1  UNL1        0.0114
     37 C          61.9174   86.7419    9.2077 C.ar    1  UNL1        0.0574
     38 CL         62.7440   85.5041    9.0212 Cl      1  UNL1       -0.0823
     39 C          62.3423   87.7854   10.1979 C.ar    1  UNL1        0.0095
@<TRIPOS>BOND
     1     8     9    1
     2     9    10    2
     3    10    11    1
     4    11    18    1
     5    18    19    1
     6    19    20    1
     7    20    21    1
     8    21    24    1
     9    24    25    1
    10    25    26    3
    11    21    22    1
    12    22    23    1
    13    11    12    2
    14    12    13    1
    15    13    14    2
    16    14    15    1
    17    15     1    1
    18     1     2    1
    19     2    27    1
    20    27    29    1
    21    29    30    1
    22    30    31    1
    23    30    33    1
    24    33    34   ar
    25    34    35   ar
    26    35    36   ar
    27    36    37   ar
    28    37    38    1
    29    37    39   ar
    30     2     3    2
    31     3     4    1
    32     4     5    2
    33     5     6    1
    34     6     7    2
    35    15    16    2
    36    16    17    1
    37    17     9    1
    38    23    18    1
    39    17    13    1
    40     6     1    1
    41    39    33   ar
    42    27    28    1
    43    31    32    1
@<TRIPOS>MOLECULE
*****
 39 43 0 0 0
SMALL
GASTEIGER

@<TRIPOS>ATOM
      1 C          65.3255   91.5763   14.2321 C.3     1  UNL1        0.2246
      2 C          65.2966   92.1036   12.8281 C.2     1  UNL1        0.0436
      3 C          65.7909   93.4897   12.5373 C.2     1  UNL1        0.0288
      4 C          66.3141   94.3484   13.6504 C.2     1  UNL1        0.0896
      5 N          66.3429   93.8211   15.0543 N.am    1  UNL1       -0.1770
      6 C          65.8486   92.4350   15.3451 C.2     1  UNL1        0.2627
      7 O          65.8775   91.9077   16.7491 O.2     1  UNL1       -0.2719
      8 C          62.8084   87.7309   17.9687 C.3     1  UNL1        0.0312
      9 C          63.2255   87.2940   16.5957 C.2     1  UNL1        0.0136
     10 C          63.0060   85.8752   16.1611 C.2     1  UNL1        0.0107
     11 C          63.4231   85.4383   14.7882 C.2     1  UNL1        0.0510
     12 C          64.0597   86.4202   13.8497 C.2     1  UNL1        0.0613
     13 C          64.2792   87.8390   14.2842 C.2     1  UNL1        0.2246
     14 N          64.8782   89.0221   13.5832 N.2     1  UNL1       -0.0378
     15 C          64.8312   90.1903   14.5230 C.2     1  UNL1        0.3605
     16 N          64.2033   89.7291   15.8048 N.2     1  UNL1       -0.0547
     17 C          63.8621   88.2759   15.6572 C.3     1  UNL1        0.2976
     18 N          63.2036   84.0195   14.3536 N.pl3   1  UNL1       -0.3046
     19 C          62.0343   83.2447   14.8850 C.3     1  UNL1        0.1081
     20 C          61.8147   81.8259   14.4505 C.3     1  UNL1        0.0946
     21 N          62.7646   81.1819   13.4845 N.3     1  UNL1       -0.2568
     22 C          63.9339   81.9567   12.9531 C.3     1  UNL1        0.0946
     23 C          64.1534   83.3754   13.3877 C.3     1  UNL1        0.1081
     24 C          62.5451   79.7631   13.0500 C.3     1  UNL1        0.1796
     25 C          62.6731   79.3940   11.6017 C.1     1  UNL1        0.0912
     26 N          62.8010   79.0250   10.1534 N.1     1  UNL1       -0.1944
     27 N          64.7735   91.2450   11.7151 N.pl3   1  UNL1       -0.3329
     28 H          65.3832   90.9271   11.0104 H       1  UNL1        0.1466
     29 C          63.3216   90.8705   11.6755 C.3     1  UNL1        0.1211
     30 C          62.6646   90.5520   10.3652 C.3     1  UNL1        0.1522
     31 O          62.7021   91.5494    9.2455 O.3     1  UNL1       -0.3783
     32 H          63.1859   92.3396    9.5324 H       1  UNL1        0.2109
     33 C          61.9700   89.2362   10.1747 C.ar    1  UNL1        0.0067
     34 C          62.3546   88.0562   11.0171 C.ar    1  UNL1       -0.0018
     35 C          61.6601   86.7405   10.8266 C.ar    1  UNL1        0.0006
     36 C          60.5809   86.6046    9.7936 C.ar    1  UNL1        0.0114
     37 C          60.1964   87.7846    8.9512 C.ar    1  UNL1        0.0574
     38 CL         59.1173   87.6488    7.9182 Cl      1  UNL1       -0.0823
     39 C          60.8909   89.1004    9.1417 C.ar    1  UNL1        0.0095
@<TRIPOS>BOND
     1     8     9    1
     2     9    10    2
     3    10    11    1
     4    11    18    1
     5    18    19    1
     6    19    20    1
     7    20    21    1
     8    21    24    1
     9    24    25    1
    10    25    26    3
    11    21    22    1
    12    22    23    1
    13    11    12    2
    14    12    13    1
    15    13    14    2
    16    14    15    1
    17    15     1    1
    18     1     2    1
    19     2    27    1
    20    27    29    1
    21    29    30    1
    22    30    31    1
    23    30    33    1
    24    33    34   ar
    25    34    35   ar
    26    35    36   ar
    27    36    37   ar
    28    37    38    1
    29    37    39   ar
    30     2     3    2
    31     3     4    1
    32     4     5    2
    33     5     6    1
    34     6     7    2
    35    15    16    2
    36    16    17    1
    37    17     9    1
    38    23    18    1
    39    17    13    1
    40     6     1    1
    41    39    33   ar
    42    27    28    1
    43    31    32    1
@<TRIPOS>MOLECULE
*****
 39 43 0 0 0
SMALL
GASTEIGER

@<TRIPOS>ATOM
      1 C          61.1744   87.7206    9.6439 C.3     1  UNL1        0.2246
      2 C          61.4351   86.4240    8.9362 C.2     1  UNL1        0.0436
      3 C          60.5206   85.9733    7.8358 C.2     1  UNL1        0.0288
      4 C          59.3456   86.8190    7.4433 C.2     1  UNL1        0.0896
      5 N          59.0850   88.1155    8.1511 N.am    1  UNL1       -0.1770
      6 C          59.9994   88.5663    9.2514 C.2     1  UNL1        0.2627
      7 O          59.7388   89.8629    9.9592 O.2     1  UNL1       -0.2719
      8 C          63.9019   86.6287   14.7872 C.3     1  UNL1        0.0312
      9 C          64.0948   87.9421   14.0888 C.2     1  UNL1        0.0136
     10 C          64.9831   88.9892   14.6925 C.2     1  UNL1        0.0107
     11 C          65.1760   90.3025   13.9941 C.2     1  UNL1        0.0510
     12 C          64.4805   90.5689   12.6920 C.2     1  UNL1        0.0613
     13 C          63.5923   89.5218   12.0883 C.2     1  UNL1        0.2246
     14 N          62.7823   89.4989   10.8260 N.2     1  UNL1       -0.0378
     15 C          62.0888   88.1714   10.7443 C.2     1  UNL1        0.3605
     16 N          62.4702   87.3738   11.9560 N.2     1  UNL1       -0.0547
     17 C          63.3994   88.2084   12.7867 C.3     1  UNL1        0.2976
     18 N          66.0643   91.3497   14.5979 N.pl3   1  UNL1       -0.3046
     19 C          65.6221   92.0924   15.8238 C.3     1  UNL1        0.1081
     20 C          66.5104   93.1395   16.4275 C.3     1  UNL1        0.0946
     21 N          67.8409   93.4439   15.8053 N.3     1  UNL1       -0.2568
     22 C          68.2831   92.7012   14.5794 C.3     1  UNL1        0.0946
     23 C          67.3948   91.6541   13.9757 C.3     1  UNL1        0.1081
     24 C          68.7292   94.4910   16.4090 C.3     1  UNL1        0.1796
     25 C          70.0970   94.7318   15.8422 C.1     1  UNL1        0.0912
     26 N          71.4648   94.9725   15.2754 N.1     1  UNL1       -0.1944
     27 N          62.6100   85.5782    9.3286 N.pl3   1  UNL1       -0.3329
     28 H          63.5108   85.9738    9.3655 H       1  UNL1        0.1466
     29 C          62.4126   84.1298    9.6648 C.3     1  UNL1        0.1211
     30 C          63.4204   83.4128   10.5134 C.3     1  UNL1        0.1522
     31 O          64.8559   83.3515   10.0826 O.3     1  UNL1       -0.3783
     32 H          64.9611   83.8216    9.2407 H       1  UNL1        0.2109
     33 C          62.9927   82.7570   11.7929 C.ar    1  UNL1        0.0067
     34 C          62.7422   81.2785   11.8307 C.ar    1  UNL1       -0.0018
     35 C          62.3145   80.6227   13.1101 C.ar    1  UNL1        0.0006
     36 C          62.1373   81.4454   14.3519 C.ar    1  UNL1        0.0114
     37 C          62.3879   82.9238   14.3141 C.ar    1  UNL1        0.0574
     38 CL         62.2107   83.7464   15.5558 Cl      1  UNL1       -0.0823
     39 C          62.8156   83.5796   13.0346 C.ar    1  UNL1        0.0095
@<TRIPOS>BOND
     1     8     9    1
     2     9    10    2
     3    10    11    1
     4    11    18    1
     5    18    19    1
     6    19    20    1
     7    20    21    1
     8    21    24    1
     9    24    25    1
    10    25    26    3
    11    21    22    1
    12    22    23    1
    13    11    12    2
    14    12    13    1
    15    13    14    2
    16    14    15    1
    17    15     1    1
    18     1     2    1
    19     2    27    1
    20    27    29    1
    21    29    30    1
    22    30    31    1
    23    30    33    1
    24    33    34   ar
    25    34    35   ar
    26    35    36   ar
    27    36    37   ar
    28    37    38    1
    29    37    39   ar
    30     2     3    2
    31     3     4    1
    32     4     5    2
    33     5     6    1
    34     6     7    2
    35    15    16    2
    36    16    17    1
    37    17     9    1
    38    23    18    1
    39    17    13    1
    40     6     1    1
    41    39    33   ar
    42    27    28    1
    43    31    32    1
@<TRIPOS>MOLECULE
*****
 39 43 0 0 0
SMALL
GASTEIGER

@<TRIPOS>ATOM
      1 C          63.1050   84.3945   11.7909 C.3     1  UNL1        0.2246
      2 C          63.5379   84.5125   13.2222 C.2     1  UNL1        0.0436
      3 C          64.2899   83.3898   13.8733 C.2     1  UNL1        0.0288
      4 C          64.6091   82.1491   13.0931 C.2     1  UNL1        0.0896
      5 N          64.1762   82.0310   11.6618 N.am    1  UNL1       -0.1770
      6 C          63.4241   83.1538   11.0108 C.2     1  UNL1        0.2627
      7 O          62.9912   83.0358    9.5794 O.2     1  UNL1       -0.2719
      8 C          59.3594   88.9623   12.2275 C.3     1  UNL1        0.0312
      9 C          59.9518   88.5897   10.9008 C.2     1  UNL1        0.0136
     10 C          59.5967   89.3757    9.6735 C.2     1  UNL1        0.0107
     11 C          60.1891   89.0031    8.3469 C.2     1  UNL1        0.0510
     12 C          61.1367   87.8445    8.2473 C.2     1  UNL1        0.0613
     13 C          61.4918   87.0585    9.4746 C.2     1  UNL1        0.2246
     14 N          62.3901   85.8757    9.6838 N.2     1  UNL1       -0.0378
     15 C          62.3529   85.5172   11.1398 C.2     1  UNL1        0.3605
     16 N          61.4316   86.4785   11.8305 N.2     1  UNL1       -0.0547
     17 C          60.8994   87.4312   10.8013 C.3     1  UNL1        0.2976
     18 N          59.8340   89.7892    7.1196 N.pl3   1  UNL1       -0.3046
     19 C          58.3961   89.9575    6.7268 C.3     1  UNL1        0.1081
     20 C          58.0410   90.7435    5.4995 C.3     1  UNL1        0.0946
     21 N          59.1237   91.3611    4.6651 N.3     1  UNL1       -0.2568
     22 C          60.5615   91.1928    5.0579 C.3     1  UNL1        0.0946
     23 C          60.9167   90.4068    6.2852 C.3     1  UNL1        0.1081
     24 C          58.7687   92.1471    3.4379 C.3     1  UNL1        0.1796
     25 C          59.8403   92.8608    2.6683 C.1     1  UNL1        0.0912
     26 N          60.9119   93.5747    1.8988 N.1     1  UNL1       -0.1944
     27 N          63.2187   85.7532   14.0025 N.pl3   1  UNL1       -0.3329
     28 H          62.2947   85.9271   14.2943 H       1  UNL1        0.1466
     29 C          64.3074   86.7289   14.3382 C.3     1  UNL1        0.1211
     30 C          63.9591   88.0877   14.8696 C.3     1  UNL1        0.1522
     31 O          63.4244   88.2335   16.2635 O.3     1  UNL1       -0.3783
     32 H          63.3662   87.3596   16.6805 H       1  UNL1        0.2109
     33 C          64.1454   89.3007   14.0071 C.ar    1  UNL1        0.0067
     34 C          65.0751   90.3946   14.4420 C.ar    1  UNL1       -0.0018
     35 C          65.2614   91.6076   13.5795 C.ar    1  UNL1        0.0006
     36 C          64.5181   91.7267   12.2821 C.ar    1  UNL1        0.0114
     37 C          63.5884   90.6328   11.8472 C.ar    1  UNL1        0.0574
     38 CL         62.8450   90.7520   10.5498 Cl      1  UNL1       -0.0823
     39 C          63.4021   89.4198   12.7097 C.ar    1  UNL1        0.0095
@<TRIPOS>BOND
     1     8     9    1
     2     9    10    2
     3    10    11    1
     4    11    18    1
     5    18    19    1
     6    19    20    1
     7    20    21    1
     8    21    24    1
     9    24    25    1
    10    25    26    3
    11    21    22    1
    12    22    23    1
    13    11    12    2
    14    12    13    1
    15    13    14    2
    16    14    15    1
    17    15     1    1
    18     1     2    1
    19     2    27    1
    20    27    29    1
    21    29    30    1
    22    30    31    1
    23    30    33    1
    24    33    34   ar
    25    34    35   ar
    26    35    36   ar
    27    36    37   ar
    28    37    38    1
    29    37    39   ar
    30     2     3    2
    31     3     4    1
    32     4     5    2
    33     5     6    1
    34     6     7    2
    35    15    16    2
    36    16    17    1
    37    17     9    1
    38    23    18    1
    39    17    13    1
    40     6     1    1
    41    39    33   ar
    42    27    28    1
    43    31    32    1
@<TRIPOS>MOLECULE
*****
 39 43 0 0 0
SMALL
GASTEIGER

@<TRIPOS>ATOM
      1 C          63.8194   90.8764   14.5318 C.3     1  UNL1        0.2246
      2 C          63.6057   90.5593   15.9822 C.2     1  UNL1        0.0436
      3 C          64.3356   91.3388   17.0357 C.2     1  UNL1        0.0288
      4 C          65.2791   92.4353   16.6387 C.2     1  UNL1        0.0896
      5 N          65.4927   92.7524   15.1883 N.am    1  UNL1       -0.1770
      6 C          64.7629   91.9729   14.1348 C.2     1  UNL1        0.2627
      7 O          64.9765   92.2899   12.6844 O.2     1  UNL1       -0.2719
      8 C          58.7215   89.2765   11.9751 C.3     1  UNL1        0.0312
      9 C          60.0280   88.7496   11.4600 C.2     1  UNL1        0.0136
     10 C          60.0492   87.8111   10.2900 C.2     1  UNL1        0.0107
     11 C          61.3555   87.2841    9.7749 C.2     1  UNL1        0.0510
     12 C          62.6409   87.6956   10.4296 C.2     1  UNL1        0.0613
     13 C          62.6197   88.6341   11.5995 C.2     1  UNL1        0.2246
     14 N          63.7176   89.2125   12.4422 N.2     1  UNL1       -0.0378
     15 C          63.0896   90.0970   13.4783 C.2     1  UNL1        0.3605
     16 N          61.6036   90.0652   13.2759 N.2     1  UNL1       -0.0547
     17 C          61.3132   89.1611   12.1147 C.3     1  UNL1        0.2976
     18 N          61.3767   86.3455    8.6049 N.pl3   1  UNL1       -0.3046
     19 C          62.6488   85.6459    8.2275 C.3     1  UNL1        0.1081
     20 C          62.6700   84.7075    7.0576 C.3     1  UNL1        0.0946
     21 N          61.4192   84.4686    6.2650 N.3     1  UNL1       -0.2568
     22 C          60.1471   85.1681    6.6423 C.3     1  UNL1        0.0946
     23 C          60.1259   86.1066    7.8123 C.3     1  UNL1        0.1081
     24 C          61.4403   83.5301    5.0951 C.3     1  UNL1        0.1796
     25 C          61.4507   84.0742    3.6972 C.1     1  UNL1        0.0912
     26 N          61.4612   84.6181    2.2994 N.1     1  UNL1       -0.1944
     27 N          62.6623   89.4629   16.3792 N.pl3   1  UNL1       -0.3329
     28 H          61.7010   89.5459   16.1838 H       1  UNL1        0.1466
     29 C          63.1835   88.2400   17.0741 C.3     1  UNL1        0.1211
     30 C          62.5986   86.8942   16.7632 C.3     1  UNL1        0.1522
     31 O          61.2672   86.5050   17.3342 O.3     1  UNL1       -0.3783
     32 H          60.9233   87.2316   17.8771 H       1  UNL1        0.2109
     33 C          63.3450   85.9375   15.8814 C.ar    1  UNL1        0.0067
     34 C          64.6392   86.3549   15.2483 C.ar    1  UNL1       -0.0018
     35 C          65.3857   85.3982   14.3665 C.ar    1  UNL1        0.0006
     36 C          64.8380   84.0241   14.1178 C.ar    1  UNL1        0.0114
     37 C          63.5438   83.6068   14.7509 C.ar    1  UNL1        0.0574
     38 CL         62.9960   82.2327   14.5021 Cl      1  UNL1       -0.0823
     39 C          62.7973   84.5634   15.6327 C.ar    1  UNL1        0.0095
@<TRIPOS>BOND
     1     8     9    1
     2     9    10    2
     3    10    11    1
     4    11    18    1
     5    18    19    1
     6    19    20    1
     7    20    21    1
     8    21    24    1
     9    24    25    1
    10    25    26    3
    11    21    22    1
    12    22    23    1
    13    11    12    2
    14    12    13    1
    15    13    14    2
    16    14    15    1
    17    15     1    1
    18     1     2    1
    19     2    27    1
    20    27    29    1
    21    29    30    1
    22    30    31    1
    23    30    33    1
    24    33    34   ar
    25    34    35   ar
    26    35    36   ar
    27    36    37   ar
    28    37    38    1
    29    37    39   ar
    30     2     3    2
    31     3     4    1
    32     4     5    2
    33     5     6    1
    34     6     7    2
    35    15    16    2
    36    16    17    1
    37    17     9    1
    38    23    18    1
    39    17    13    1
    40     6     1    1
    41    39    33   ar
    42    27    28    1
    43    31    32    1
@<TRIPOS>MOLECULE
*****
 39 43 0 0 0
SMALL
GASTEIGER

@<TRIPOS>ATOM
      1 C          62.9324   88.2791   12.3808 C.3     1  UNL1        0.2246
      2 C          63.4151   89.4383   13.2013 C.2     1  UNL1        0.0436
      3 C          64.1654   89.1934   14.4769 C.2     1  UNL1        0.0288
      4 C          64.4331   87.7894   14.9320 C.2     1  UNL1        0.0896
      5 N          63.9504   86.6302   14.1116 N.am    1  UNL1       -0.1770
      6 C          63.2001   86.8751   12.8359 C.2     1  UNL1        0.2627
      7 O          62.7174   85.7159   12.0155 O.2     1  UNL1       -0.2719
      8 C          58.7792   86.6161    8.4989 C.3     1  UNL1        0.0312
      9 C          59.5785   87.8643    8.2683 C.2     1  UNL1        0.0136
     10 C          59.3283   88.7003    7.0483 C.2     1  UNL1        0.0107
     11 C          60.1276   89.9485    6.8177 C.2     1  UNL1        0.0510
     12 C          61.1770   90.3606    7.8070 C.2     1  UNL1        0.0613
     13 C          61.4272   89.5246    9.0270 C.2     1  UNL1        0.2246
     14 N          62.3878   89.6775   10.1689 N.2     1  UNL1       -0.0378
     15 C          62.1821   88.5239   11.1052 C.2     1  UNL1        0.3605
     16 N          61.0945   87.6579   10.5421 N.2     1  UNL1       -0.0547
     17 C          60.6279   88.2764    9.2577 C.3     1  UNL1        0.2976
     18 N          59.8774   90.7846    5.5976 N.pl3   1  UNL1       -0.3046
     19 C          61.0263   91.2138    4.7341 C.3     1  UNL1        0.1081
     20 C          60.7762   92.0499    3.5141 C.3     1  UNL1        0.0946
     21 N          59.3771   92.4567    3.1576 N.3     1  UNL1       -0.2568
     22 C          58.2282   92.0274    4.0211 C.3     1  UNL1        0.0946
     23 C          58.4783   91.1914    5.2411 C.3     1  UNL1        0.1081
     24 C          59.1269   93.2927    1.9376 C.3     1  UNL1        0.1796
     25 C          60.0797   93.2350    0.7805 C.1     1  UNL1        0.0912
     26 N          61.0326   93.1774   -0.3766 N.1     1  UNL1       -0.1944
     27 N          63.1475   90.8423   12.7463 N.pl3   1  UNL1       -0.3329
     28 H          62.3693   91.3333   13.0964 H       1  UNL1        0.1466
     29 C          64.0656   91.4983   11.7580 C.3     1  UNL1        0.1211
     30 C          65.2091   92.3404   12.2408 C.3     1  UNL1        0.1522
     31 O          65.4861   92.4575   13.7104 O.3     1  UNL1       -0.3783
     32 H          64.8383   91.9311   14.2045 H       1  UNL1        0.2109
     33 C          66.0756   93.0654   11.2542 C.ar    1  UNL1        0.0067
     34 C          65.8668   94.5300   11.0066 C.ar    1  UNL1       -0.0018
     35 C          66.7333   95.2549   10.0200 C.ar    1  UNL1        0.0006
     36 C          67.8088   94.5153    9.2808 C.ar    1  UNL1        0.0114
     37 C          68.0176   93.0507    9.5283 C.ar    1  UNL1        0.0574
     38 CL         69.0931   92.3111    8.7891 Cl      1  UNL1       -0.0823
     39 C          67.1511   92.3258   10.5150 C.ar    1  UNL1        0.0095
@<TRIPOS>BOND
     1     8     9    1
     2     9    10    2
     3    10    11    1
     4    11    18    1
     5    18    19    1
     6    19    20    1
     7    20    21    1
     8    21    24    1
     9    24    25    1
    10    25    26    3
    11    21    22    1
    12    22    23    1
    13    11    12    2
    14    12    13    1
    15    13    14    2
    16    14    15    1
    17    15     1    1
    18     1     2    1
    19     2    27    1
    20    27    29    1
    21    29    30    1
    22    30    31    1
    23    30    33    1
    24    33    34   ar
    25    34    35   ar
    26    35    36   ar
    27    36    37   ar
    28    37    38    1
    29    37    39   ar
    30     2     3    2
    31     3     4    1
    32     4     5    2
    33     5     6    1
    34     6     7    2
    35    15    16    2
    36    16    17    1
    37    17     9    1
    38    23    18    1
    39    17    13    1
    40     6     1    1
    41    39    33   ar
    42    27    28    1
    43    31    32    1
@<TRIPOS>MOLECULE
*****
 39 43 0 0 0
SMALL
GASTEIGER

@<TRIPOS>ATOM
      1 C          63.2080   95.7059   -0.7006 C.3     1  UNL1        0.2246
      2 C          63.2975   95.4740    0.7787 C.2     1  UNL1        0.0436
      3 C          64.6212   95.5824    1.4760 C.2     1  UNL1        0.0288
      4 C          65.8553   95.9227    0.6942 C.2     1  UNL1        0.0896
      5 N          65.7657   96.1546   -0.7851 N.am    1  UNL1       -0.1770
      6 C          64.4421   96.0462   -1.4824 C.2     1  UNL1        0.2627
      7 O          64.3525   96.2781   -2.9617 O.2     1  UNL1       -0.2719
      8 C          60.0839   94.3393   -5.5438 C.3     1  UNL1        0.0312
      9 C          59.3927   94.8381   -4.3095 C.2     1  UNL1        0.0136
     10 C          57.9008   94.9936   -4.2963 C.2     1  UNL1        0.0107
     11 C          57.2096   95.4924   -3.0621 C.2     1  UNL1        0.0510
     12 C          58.0102   95.8357   -1.8409 C.2     1  UNL1        0.0613
     13 C          59.5021   95.6801   -1.8541 C.2     1  UNL1        0.2246
     14 N          60.5473   95.9374   -0.8094 N.2     1  UNL1       -0.0378
     15 C          61.8844   95.5975   -1.3980 C.2     1  UNL1        0.3605
     16 N          61.6657   95.1303   -2.8065 N.2     1  UNL1       -0.0547
     17 C          60.1933   95.1814   -3.0884 C.3     1  UNL1        0.2976
     18 N          55.7177   95.6479   -3.0490 N.pl3   1  UNL1       -0.3046
     19 C          54.9761   95.8766   -4.3326 C.3     1  UNL1        0.1081
     20 C          53.4843   96.0322   -4.3195 C.3     1  UNL1        0.0946
     21 N          52.7340   95.9589   -3.0227 N.3     1  UNL1       -0.2568
     22 C          53.4756   95.7302   -1.7390 C.3     1  UNL1        0.0946
     23 C          54.9674   95.5747   -1.7522 C.3     1  UNL1        0.1081
     24 C          51.2422   96.1144   -3.0095 C.3     1  UNL1        0.1796
     25 C          50.4549   95.9032   -4.2687 C.1     1  UNL1        0.0912
     26 N          49.6676   95.6919   -5.5279 N.1     1  UNL1       -0.1944
     27 N          62.0636   95.1337    1.5606 N.pl3   1  UNL1       -0.3329
     28 H          61.4588   95.8497    1.8621 H       1  UNL1        0.1466
     29 C          61.7509   93.7026    1.8832 C.3     1  UNL1        0.1211
     30 C          60.3284   93.2738    2.0896 C.3     1  UNL1        0.1522
     31 O          59.2679   93.7010    1.1186 O.3     1  UNL1       -0.3783
     32 H          59.6674   94.2453    0.4222 H       1  UNL1        0.2109
     33 C          59.9664   92.4179    3.2670 C.ar    1  UNL1        0.0067
     34 C          61.0450   91.7655    4.0799 C.ar    1  UNL1       -0.0018
     35 C          60.6831   90.9096    5.2573 C.ar    1  UNL1        0.0006
     36 C          59.2423   90.7060    5.6219 C.ar    1  UNL1        0.0114
     37 C          58.1637   91.3584    4.8090 C.ar    1  UNL1        0.0574
     38 CL         56.7230   91.1549    5.1736 Cl      1  UNL1       -0.0823
     39 C          58.5257   92.2143    3.6316 C.ar    1  UNL1        0.0095
@<TRIPOS>BOND
     1     8     9    1
     2     9    10    2
     3    10    11    1
     4    11    18    1
     5    18    19    1
     6    19    20    1
     7    20    21    1
     8    21    24    1
     9    24    25    1
    10    25    26    3
    11    21    22    1
    12    22    23    1
    13    11    12    2
    14    12    13    1
    15    13    14    2
    16    14    15    1
    17    15     1    1
    18     1     2    1
    19     2    27    1
    20    27    29    1
    21    29    30    1
    22    30    31    1
    23    30    33    1
    24    33    34   ar
    25    34    35   ar
    26    35    36   ar
    27    36    37   ar
    28    37    38    1
    29    37    39   ar
    30     2     3    2
    31     3     4    1
    32     4     5    2
    33     5     6    1
    34     6     7    2
    35    15    16    2
    36    16    17    1
    37    17     9    1
    38    23    18    1
    39    17    13    1
    40     6     1    1
    41    39    33   ar
    42    27    28    1
    43    31    32    1
@<TRIPOS>MOLECULE
*****
 39 43 0 0 0
SMALL
GASTEIGER

@<TRIPOS>ATOM
      1 C          62.8450   83.9692   13.3984 C.3     1  UNL1        0.2246
      2 C          62.9175   83.2194   12.1013 C.2     1  UNL1        0.0436
      3 C          62.5236   81.7730   12.0480 C.2     1  UNL1        0.0288
      4 C          62.0573   81.0763   13.2918 C.2     1  UNL1        0.0896
      5 N          61.9848   81.8261   14.5890 N.am    1  UNL1       -0.1770
      6 C          62.3786   83.2725   14.6422 C.2     1  UNL1        0.2627
      7 O          62.3061   84.0222   15.9394 O.2     1  UNL1       -0.2719
      8 C          62.0880   89.5405   11.5353 C.3     1  UNL1        0.0312
      9 C          63.1369   89.2172   12.5576 C.2     1  UNL1        0.0136
     10 C          64.0025   90.3082   13.1150 C.2     1  UNL1        0.0107
     11 C          65.0514   89.9849   14.1373 C.2     1  UNL1        0.0510
     12 C          65.2348   88.5706   14.6023 C.2     1  UNL1        0.0613
     13 C          64.3693   87.4796   14.0450 C.2     1  UNL1        0.2246
     14 N          64.3189   86.0041   14.3102 N.2     1  UNL1       -0.0378
     15 C          63.2388   85.4156   13.4518 C.2     1  UNL1        0.3605
     16 N          62.6217   86.5273   12.6560 N.2     1  UNL1       -0.0547
     17 C          63.3203   87.8030   13.0226 C.3     1  UNL1        0.2976
     18 N          65.9169   91.0759   14.6947 N.pl3   1  UNL1       -0.3046
     19 C          67.2643   91.3456   14.0930 C.3     1  UNL1        0.1081
     20 C          68.1298   92.4365   14.6503 C.3     1  UNL1        0.0946
     21 N          67.6480   93.2578   15.8093 N.3     1  UNL1       -0.2568
     22 C          66.3007   92.9881   16.4110 C.3     1  UNL1        0.0946
     23 C          65.4352   91.8972   15.8537 C.3     1  UNL1        0.1081
     24 C          68.5135   94.3488   16.3667 C.3     1  UNL1        0.1796
     25 C          69.8805   94.5866   15.7969 C.1     1  UNL1        0.0912
     26 N          71.2476   94.8245   15.2271 N.1     1  UNL1       -0.1944
     27 N          63.3838   83.9160   10.8574 N.pl3   1  UNL1       -0.3329
     28 H          64.1299   83.5428   10.3345 H       1  UNL1        0.1466
     29 C          62.7135   85.1812   10.4101 C.3     1  UNL1        0.1211
     30 C          62.3802   85.3816    8.9614 C.3     1  UNL1        0.1522
     31 O          63.1758   84.6752    7.9041 O.3     1  UNL1       -0.3783
     32 H          63.8620   84.1332    8.3238 H       1  UNL1        0.2109
     33 C          61.2513   86.2885    8.5701 C.ar    1  UNL1        0.0067
     34 C          60.1877   85.8002    7.6319 C.ar    1  UNL1       -0.0018
     35 C          59.0588   86.7070    7.2406 C.ar    1  UNL1        0.0006
     36 C          58.9934   88.1023    7.7875 C.ar    1  UNL1        0.0114
     37 C          60.0570   88.5905    8.7258 C.ar    1  UNL1        0.0574
     38 CL         59.9916   89.9857    9.2727 Cl      1  UNL1       -0.0823
     39 C          61.1859   87.6837    9.1171 C.ar    1  UNL1        0.0095
@<TRIPOS>BOND
     1     8     9    1
     2     9    10    2
     3    10    11    1
     4    11    18    1
     5    18    19    1
     6    19    20    1
     7    20    21    1
     8    21    24    1
     9    24    25    1
    10    25    26    3
    11    21    22    1
    12    22    23    1
    13    11    12    2
    14    12    13    1
    15    13    14    2
    16    14    15    1
    17    15     1    1
    18     1     2    1
    19     2    27    1
    20    27    29    1
    21    29    30    1
    22    30    31    1
    23    30    33    1
    24    33    34   ar
    25    34    35   ar
    26    35    36   ar
    27    36    37   ar
    28    37    38    1
    29    37    39   ar
    30     2     3    2
    31     3     4    1
    32     4     5    2
    33     5     6    1
    34     6     7    2
    35    15    16    2
    36    16    17    1
    37    17     9    1
    38    23    18    1
    39    17    13    1
    40     6     1    1
    41    39    33   ar
    42    27    28    1
    43    31    32    1
