@<TRIPOS>MOLECULE
*****
 27 30 0 0 0
SMALL
GASTEIGER

@<TRIPOS>ATOM
      1 O          61.1754   87.3732    8.8438 O.2     1  UNL1       -0.2203
      2 C          61.6941   86.5612    9.9934 C.ar    1  UNL1        0.4472
      3 O          61.5724   85.0742   10.1484 O.2     1  UNL1       -0.2950
      4 N          62.2286   84.6876   11.4407 N.ar    1  UNL1       -0.0545
      5 C          62.7559   85.9357   12.0843 C.ar    1  UNL1        0.2069
      6 N          62.4255   87.0936   11.1899 N.ar    1  UNL1       -0.2242
      7 C          62.8334   88.4833   11.5804 C.ar    1  UNL1        0.0768
      8 C          62.5030   89.6412   10.6860 C.ar    1  UNL1        0.0182
      9 C          62.9109   91.0308   11.0766 C.ar    1  UNL1        0.0015
     10 C          63.6492   91.2625   12.3616 C.ar    1  UNL1        0.0006
     11 C          63.9795   90.1046   13.2560 C.ar    1  UNL1        0.0077
     12 C          63.5716   88.7150   12.8654 C.ar    1  UNL1        0.0443
     13 S          63.9020   87.5570   13.7599 S.3     1  UNL1       -0.0753
     14 C          63.4941   86.1674   13.3693 C.3     1  UNL1        0.2085
     15 C          63.3218   84.6787   13.4327 C.ar    1  UNL1        0.0190
     16 C          62.1857   84.0877   14.2137 C.ar    1  UNL1       -0.0002
     17 C          62.0134   82.5990   14.2770 C.ar    1  UNL1        0.0065
     18 C          62.9772   81.7013   13.5594 C.ar    1  UNL1        0.0345
     19 BR         62.8049   80.2125   13.6227 Br      1  UNL1       -0.0490
     20 C          64.1134   82.2921   12.7784 C.ar    1  UNL1        0.0065
     21 C          64.2857   83.7809   12.7151 C.ar    1  UNL1       -0.0002
     22 O          64.1726   85.8821   14.6763 O.3     1  UNL1       -0.3293
     23 C          64.0582   86.8582   15.8095 C.3     1  UNL1        0.2470
     24 C          63.2347   86.5146   17.0152 C.3     1  UNL1        0.4249
     25 F          62.4110   86.1710   18.2209 F       1  UNL1       -0.1674
     26 F          63.4587   85.0549   16.7524 F       1  UNL1       -0.1674
     27 F          63.0106   87.9743   17.2780 F       1  UNL1       -0.1674
@<TRIPOS>BOND
     1     1     2    2
     2     2     3   ar
     3     3     4   ar
     4     4     5   ar
     5     5     6   ar
     6     6     7    1
     7     7     8   ar
     8     8     9   ar
     9     9    10   ar
    10    10    11   ar
    11    11    12   ar
    12    12    13    1
    13    13    14    1
    14    14    22    1
    15    22    23    1
    16    23    24    1
    17    24    25    1
    18    24    26    1
    19    24    27    1
    20    14    15    1
    21    15    16   ar
    22    16    17   ar
    23    17    18   ar
    24    18    19    1
    25    18    20   ar
    26    20    21   ar
    27     6     2   ar
    28    12     7   ar
    29    21    15   ar
    30    14     5    1
@<TRIPOS>MOLECULE
*****
 27 30 0 0 0
SMALL
GASTEIGER

@<TRIPOS>ATOM
      1 O          62.3014   89.4644   15.4353 O.2     1  UNL1       -0.2203
      2 C          63.4854   90.2830   15.0135 C.ar    1  UNL1        0.4472
      3 O          64.5994   90.7466   15.9046 O.2     1  UNL1       -0.2950
      4 N          65.5658   91.5319   15.0683 N.ar    1  UNL1       -0.0545
      5 C          65.0490   91.5537   13.6603 C.ar    1  UNL1        0.2069
      6 N          63.7633   90.7819   13.6264 N.ar    1  UNL1       -0.2242
      7 C          63.0117   90.6329   12.3369 C.ar    1  UNL1        0.0768
      8 C          61.7260   89.8611   12.3030 C.ar    1  UNL1        0.0182
      9 C          60.9744   89.7122   11.0135 C.ar    1  UNL1        0.0015
     10 C          61.5085   90.3352    9.7578 C.ar    1  UNL1        0.0006
     11 C          62.7942   91.1070    9.7917 C.ar    1  UNL1        0.0077
     12 C          63.5458   91.2559   11.0812 C.ar    1  UNL1        0.0443
     13 S          64.8316   92.0277   11.1151 S.3     1  UNL1       -0.0753
     14 C          65.5832   92.1766   12.4046 C.3     1  UNL1        0.2085
     15 C          66.6488   92.5919   13.3752 C.ar    1  UNL1        0.0190
     16 C          66.5174   93.8841   14.1257 C.ar    1  UNL1       -0.0002
     17 C          67.5830   94.2994   15.0962 C.ar    1  UNL1        0.0065
     18 C          68.7800   93.4227   15.3162 C.ar    1  UNL1        0.0345
     19 BR         69.8457   93.8380   16.2868 Br      1  UNL1       -0.0490
     20 C          68.9115   92.1306   14.5658 C.ar    1  UNL1        0.0065
     21 C          67.8458   91.7152   13.5953 C.ar    1  UNL1       -0.0002
     22 O          66.4873   92.9438   11.4861 O.3     1  UNL1       -0.3293
     23 C          66.7915   92.4122   10.1168 C.3     1  UNL1        0.2470
     24 C          68.1984   92.4392    9.5972 C.3     1  UNL1        0.4249
     25 F          69.6053   92.4661    9.0777 F       1  UNL1       -0.1674
     26 F          68.5847   91.3816   10.5882 F       1  UNL1       -0.1674
     27 F          67.8121   93.4968    8.6062 F       1  UNL1       -0.1674
@<TRIPOS>BOND
     1     1     2    2
     2     2     3   ar
     3     3     4   ar
     4     4     5   ar
     5     5     6   ar
     6     6     7    1
     7     7     8   ar
     8     8     9   ar
     9     9    10   ar
    10    10    11   ar
    11    11    12   ar
    12    12    13    1
    13    13    14    1
    14    14    22    1
    15    22    23    1
    16    23    24    1
    17    24    25    1
    18    24    26    1
    19    24    27    1
    20    14    15    1
    21    15    16   ar
    22    16    17   ar
    23    17    18   ar
    24    18    19    1
    25    18    20   ar
    26    20    21   ar
    27     6     2   ar
    28    12     7   ar
    29    21    15   ar
    30    14     5    1
@<TRIPOS>MOLECULE
*****
 27 30 0 0 0
SMALL
GASTEIGER

@<TRIPOS>ATOM
      1 O          64.8813   88.9237   15.1615 O.2     1  UNL1       -0.2203
      2 C          64.3477   87.7348   14.4188 C.ar    1  UNL1        0.4472
      3 O          64.4495   86.3036   14.8562 O.2     1  UNL1       -0.2950
      4 N          63.7833   85.4525   13.8161 N.ar    1  UNL1       -0.0545
      5 C          63.2698   86.3577   12.7358 C.ar    1  UNL1        0.2069
      6 N          63.6186   87.7682   13.1084 N.ar    1  UNL1       -0.2242
      7 C          63.2273   88.9009   12.2062 C.ar    1  UNL1        0.0768
      8 C          63.5761   90.3114   12.5787 C.ar    1  UNL1        0.0182
      9 C          63.1848   91.4440   11.6765 C.ar    1  UNL1        0.0015
     10 C          62.4446   91.1661   10.4018 C.ar    1  UNL1        0.0006
     11 C          62.0958   89.7557   10.0293 C.ar    1  UNL1        0.0077
     12 C          62.4871   88.6231   10.9315 C.ar    1  UNL1        0.0443
     13 S          62.1383   87.2125   10.5589 S.3     1  UNL1       -0.0753
     14 C          62.5296   86.0799   11.4611 C.3     1  UNL1        0.2085
     15 C          62.6823   84.6822   11.9836 C.ar    1  UNL1        0.0190
     16 C          63.4762   83.6737   11.2071 C.ar    1  UNL1       -0.0002
     17 C          63.6289   82.2760   11.7297 C.ar    1  UNL1        0.0065
     18 C          62.9878   81.8867   13.0286 C.ar    1  UNL1        0.0345
     19 BR         63.1405   80.4889   13.5512 Br      1  UNL1       -0.0490
     20 C          62.1939   82.8950   13.8051 C.ar    1  UNL1        0.0065
     21 C          62.0412   84.2927   13.2826 C.ar    1  UNL1       -0.0002
     22 O          61.8425   85.3166   10.3679 O.3     1  UNL1       -0.3293
     23 C          61.6084   85.9629    9.0347 C.3     1  UNL1        0.2470
     24 C          62.0485   85.2717    7.7784 C.3     1  UNL1        0.4249
     25 F          62.4888   84.5804    6.5220 F       1  UNL1       -0.1674
     26 F          63.4560   85.2282    8.2953 F       1  UNL1       -0.1674
     27 F          60.6412   85.3152    7.2614 F       1  UNL1       -0.1674
@<TRIPOS>BOND
     1     1     2    2
     2     2     3   ar
     3     3     4   ar
     4     4     5   ar
     5     5     6   ar
     6     6     7    1
     7     7     8   ar
     8     8     9   ar
     9     9    10   ar
    10    10    11   ar
    11    11    12   ar
    12    12    13    1
    13    13    14    1
    14    14    22    1
    15    22    23    1
    16    23    24    1
    17    24    25    1
    18    24    26    1
    19    24    27    1
    20    14    15    1
    21    15    16   ar
    22    16    17   ar
    23    17    18   ar
    24    18    19    1
    25    18    20   ar
    26    20    21   ar
    27     6     2   ar
    28    12     7   ar
    29    21    15   ar
    30    14     5    1
@<TRIPOS>MOLECULE
*****
 27 30 0 0 0
SMALL
GASTEIGER

@<TRIPOS>ATOM
      1 O          63.3020   86.0672   13.8080 O.2     1  UNL1       -0.2203
      2 C          63.8626   87.4585   13.8090 C.ar    1  UNL1        0.4472
      3 O          64.8511   88.0100   14.7931 O.2     1  UNL1       -0.2950
      4 N          65.1326   89.4349   14.4184 N.ar    1  UNL1       -0.0545
      5 C          64.3180   89.7640   13.2026 C.ar    1  UNL1        0.2069
      6 N          63.5331   88.5425   12.8260 N.ar    1  UNL1       -0.2242
      7 C          62.6197   88.5751   11.6365 C.ar    1  UNL1        0.0768
      8 C          61.8349   87.3536   11.2600 C.ar    1  UNL1        0.0182
      9 C          60.9215   87.3862   10.0706 C.ar    1  UNL1        0.0015
     10 C          60.7931   88.6403    9.2578 C.ar    1  UNL1        0.0006
     11 C          61.5779   89.8618    9.6343 C.ar    1  UNL1        0.0077
     12 C          62.4913   89.8292   10.8237 C.ar    1  UNL1        0.0443
     13 S          63.2762   91.0508   11.2004 S.3     1  UNL1       -0.0753
     14 C          64.1895   91.0181   12.3898 C.3     1  UNL1        0.2085
     15 C          65.1774   91.4763   13.4213 C.ar    1  UNL1        0.0190
     16 C          66.6373   91.5448   13.0834 C.ar    1  UNL1       -0.0002
     17 C          67.6252   92.0030   14.1150 C.ar    1  UNL1        0.0065
     18 C          67.1533   92.3927   15.4844 C.ar    1  UNL1        0.0345
     19 BR         68.1412   92.8509   16.5160 Br      1  UNL1       -0.0490
     20 C          65.6935   92.3242   15.8224 C.ar    1  UNL1        0.0065
     21 C          64.7056   91.8661   14.7908 C.ar    1  UNL1       -0.0002
     22 O          64.4041   92.4314   11.9352 O.3     1  UNL1       -0.3293
     23 C          64.9309   92.7044   10.5576 C.3     1  UNL1        0.2470
     24 C          66.0882   93.6397   10.3688 C.3     1  UNL1        0.4249
     25 F          67.2456   94.5751   10.1800 F       1  UNL1       -0.1674
     26 F          65.2049   94.8022   10.7123 F       1  UNL1       -0.1674
     27 F          66.9717   92.4772   10.0253 F       1  UNL1       -0.1674
@<TRIPOS>BOND
     1     1     2    2
     2     2     3   ar
     3     3     4   ar
     4     4     5   ar
     5     5     6   ar
     6     6     7    1
     7     7     8   ar
     8     8     9   ar
     9     9    10   ar
    10    10    11   ar
    11    11    12   ar
    12    12    13    1
    13    13    14    1
    14    14    22    1
    15    22    23    1
    16    23    24    1
    17    24    25    1
    18    24    26    1
    19    24    27    1
    20    14    15    1
    21    15    16   ar
    22    16    17   ar
    23    17    18   ar
    24    18    19    1
    25    18    20   ar
    26    20    21   ar
    27     6     2   ar
    28    12     7   ar
    29    21    15   ar
    30    14     5    1
@<TRIPOS>MOLECULE
*****
 27 30 0 0 0
SMALL
GASTEIGER

@<TRIPOS>ATOM
      1 O          61.2941   94.3055   -4.7865 O.2     1  UNL1       -0.2203
      2 C          61.5011   94.4734   -3.3104 C.ar    1  UNL1        0.4472
      3 O          62.6980   95.0938   -2.6528 O.2     1  UNL1       -0.2950
      4 N          62.4841   95.0542   -1.1687 N.ar    1  UNL1       -0.0545
      5 C          61.1550   94.4092   -0.9090 C.ar    1  UNL1        0.2069
      6 N          60.5475   94.0502   -2.2326 N.ar    1  UNL1       -0.2242
      7 C          59.2044   93.3844   -2.2855 C.ar    1  UNL1        0.0768
      8 C          58.5968   93.0255   -3.6092 C.ar    1  UNL1        0.0182
      9 C          57.2538   92.3597   -3.6621 C.ar    1  UNL1        0.0015
     10 C          56.5182   92.0529   -2.3913 C.ar    1  UNL1        0.0006
     11 C          57.1257   92.4118   -1.0677 C.ar    1  UNL1        0.0077
     12 C          58.4688   93.0776   -1.0148 C.ar    1  UNL1        0.0443
     13 S          59.0764   93.4366    0.3089 S.3     1  UNL1       -0.0753
     14 C          60.4195   94.1023    0.3618 C.3     1  UNL1        0.2085
     15 C          61.6563   94.7383    0.9238 C.ar    1  UNL1        0.0190
     16 C          61.6738   96.2078    1.2241 C.ar    1  UNL1       -0.0002
     17 C          62.9106   96.8438    1.7861 C.ar    1  UNL1        0.0065
     18 C          64.1299   96.0102    2.0477 C.ar    1  UNL1        0.0345
     19 BR         65.3668   96.6462    2.6097 Br      1  UNL1       -0.0490
     20 C          64.1124   94.5407    1.7474 C.ar    1  UNL1        0.0065
     21 C          62.8756   93.9048    1.1854 C.ar    1  UNL1       -0.0002
     22 O          60.1134   94.0163    1.8277 O.3     1  UNL1       -0.3293
     23 C          59.3979   92.8172    2.3754 C.3     1  UNL1        0.2470
     24 C          59.7860   92.2580    3.7121 C.3     1  UNL1        0.4249
     25 F          60.1742   91.6988    5.0487 F       1  UNL1       -0.1674
     26 F          61.2347   92.4327    3.3646 F       1  UNL1       -0.1674
     27 F          58.3374   92.0833    4.0596 F       1  UNL1       -0.1674
@<TRIPOS>BOND
     1     1     2    2
     2     2     3   ar
     3     3     4   ar
     4     4     5   ar
     5     5     6   ar
     6     6     7    1
     7     7     8   ar
     8     8     9   ar
     9     9    10   ar
    10    10    11   ar
    11    11    12   ar
    12    12    13    1
    13    13    14    1
    14    14    22    1
    15    22    23    1
    16    23    24    1
    17    24    25    1
    18    24    26    1
    19    24    27    1
    20    14    15    1
    21    15    16   ar
    22    16    17   ar
    23    17    18   ar
    24    18    19    1
    25    18    20   ar
    26    20    21   ar
    27     6     2   ar
    28    12     7   ar
    29    21    15   ar
    30    14     5    1
@<TRIPOS>MOLECULE
*****
 27 30 0 0 0
SMALL
GASTEIGER

@<TRIPOS>ATOM
      1 O          65.6159   86.4720   15.6481 O.2     1  UNL1       -0.2203
      2 C          64.8966   85.6831   14.5944 C.ar    1  UNL1        0.4472
      3 O          64.9140   84.1906   14.4448 O.2     1  UNL1       -0.2950
      4 N          64.0617   83.8333   13.2633 N.ar    1  UNL1       -0.0545
      5 C          63.5177   85.1048   12.6827 C.ar    1  UNL1        0.2069
      6 N          64.0337   86.2480   13.5053 N.ar    1  UNL1       -0.2242
      7 C          63.6511   87.6559   13.1565 C.ar    1  UNL1        0.0768
      8 C          64.1671   88.7990   13.9791 C.ar    1  UNL1        0.0182
      9 C          63.7845   90.2068   13.6302 C.ar    1  UNL1        0.0015
     10 C          62.8859   90.4714   12.4587 C.ar    1  UNL1        0.0006
     11 C          62.3699   89.3282   11.6360 C.ar    1  UNL1        0.0077
     12 C          62.7525   87.9204   11.9849 C.ar    1  UNL1        0.0443
     13 S          62.2365   86.7771   11.1622 S.3     1  UNL1       -0.0753
     14 C          62.6191   85.3694   11.5111 C.3     1  UNL1        0.2085
     15 C          62.6993   83.8730   11.4452 C.ar    1  UNL1        0.0190
     16 C          61.9380   83.0370   12.4309 C.ar    1  UNL1       -0.0002
     17 C          62.0182   81.5406   12.3650 C.ar    1  UNL1        0.0065
     18 C          62.8596   80.8802   11.3135 C.ar    1  UNL1        0.0345
     19 BR         62.9398   79.3837   11.2476 Br      1  UNL1       -0.0490
     20 C          63.6209   81.7161   10.3278 C.ar    1  UNL1        0.0065
     21 C          63.5407   83.2125   10.3937 C.ar    1  UNL1       -0.0002
     22 O          61.7484   85.1143   10.3167 O.3     1  UNL1       -0.3293
     23 C          61.8167   86.0286    9.1296 C.3     1  UNL1        0.2470
     24 C          61.8930   85.4562    7.7453 C.3     1  UNL1        0.4249
     25 F          61.9692   84.8837    6.3609 F       1  UNL1       -0.1674
     26 F          60.4047   85.5850    7.6100 F       1  UNL1       -0.1674
     27 F          63.3812   85.3274    7.8805 F       1  UNL1       -0.1674
@<TRIPOS>BOND
     1     1     2    2
     2     2     3   ar
     3     3     4   ar
     4     4     5   ar
     5     5     6   ar
     6     6     7    1
     7     7     8   ar
     8     8     9   ar
     9     9    10   ar
    10    10    11   ar
    11    11    12   ar
    12    12    13    1
    13    13    14    1
    14    14    22    1
    15    22    23    1
    16    23    24    1
    17    24    25    1
    18    24    26    1
    19    24    27    1
    20    14    15    1
    21    15    16   ar
    22    16    17   ar
    23    17    18   ar
    24    18    19    1
    25    18    20   ar
    26    20    21   ar
    27     6     2   ar
    28    12     7   ar
    29    21    15   ar
    30    14     5    1
@<TRIPOS>MOLECULE
*****
 27 30 0 0 0
SMALL
GASTEIGER

@<TRIPOS>ATOM
      1 O          63.8402   83.3134   13.8213 O.2     1  UNL1       -0.2203
      2 C          63.3843   84.0064   12.5715 C.ar    1  UNL1        0.4472
      3 O          62.9778   83.3387   11.2913 O.2     1  UNL1       -0.2950
      4 N          62.5972   84.4084   10.3111 N.ar    1  UNL1       -0.0545
      5 C          62.7685   85.7372   10.9855 C.ar    1  UNL1        0.2069
      6 N          63.2550   85.4888   12.3824 N.ar    1  UNL1       -0.2242
      7 C          63.5174   86.6445   13.3019 C.ar    1  UNL1        0.0768
      8 C          64.0039   86.3961   14.6989 C.ar    1  UNL1        0.0182
      9 C          64.2663   87.5518   15.6183 C.ar    1  UNL1        0.0015
     10 C          64.0421   88.9560   15.1408 C.ar    1  UNL1        0.0006
     11 C          63.5556   89.2045   13.7438 C.ar    1  UNL1        0.0077
     12 C          63.2933   88.0487   12.8244 C.ar    1  UNL1        0.0443
     13 S          62.8067   88.2971   11.4274 S.3     1  UNL1       -0.0753
     14 C          62.5444   87.1414   10.5079 C.3     1  UNL1        0.2085
     15 C          62.1575   86.3817    9.2738 C.ar    1  UNL1        0.0190
     16 C          63.2066   85.6714    8.4706 C.ar    1  UNL1       -0.0002
     17 C          62.8197   84.9117    7.2365 C.ar    1  UNL1        0.0065
     18 C          61.3838   84.8622    6.8055 C.ar    1  UNL1        0.0345
     19 BR         60.9970   84.1024    5.5712 Br      1  UNL1       -0.0490
     20 C          60.3348   85.5725    7.6085 C.ar    1  UNL1        0.0065
     21 C          60.7216   86.3322    8.8427 C.ar    1  UNL1       -0.0002
     22 O          62.1859   88.2817    9.6018 O.3     1  UNL1       -0.3293
     23 C          62.0220   89.6630   10.1633 C.3     1  UNL1        0.2470
     24 C          60.6489   90.2207   10.3942 C.3     1  UNL1        0.4249
     25 F          59.2757   90.7785   10.6252 F       1  UNL1       -0.1674
     26 F          61.1371   90.9094   11.6341 F       1  UNL1       -0.1674
     27 F          60.1606   89.5320    9.1544 F       1  UNL1       -0.1674
@<TRIPOS>BOND
     1     1     2    2
     2     2     3   ar
     3     3     4   ar
     4     4     5   ar
     5     5     6   ar
     6     6     7    1
     7     7     8   ar
     8     8     9   ar
     9     9    10   ar
    10    10    11   ar
    11    11    12   ar
    12    12    13    1
    13    13    14    1
    14    14    22    1
    15    22    23    1
    16    23    24    1
    17    24    25    1
    18    24    26    1
    19    24    27    1
    20    14    15    1
    21    15    16   ar
    22    16    17   ar
    23    17    18   ar
    24    18    19    1
    25    18    20   ar
    26    20    21   ar
    27     6     2   ar
    28    12     7   ar
    29    21    15   ar
    30    14     5    1
@<TRIPOS>MOLECULE
*****
 27 30 0 0 0
SMALL
GASTEIGER

@<TRIPOS>ATOM
      1 O          61.4338   89.8043    9.5249 O.2     1  UNL1       -0.2203
      2 C          62.1278   89.7649   10.8541 C.ar    1  UNL1        0.4472
      3 O          62.4817   90.9524   11.6995 O.2     1  UNL1       -0.2950
      4 N          63.1625   90.4525   12.9391 N.ar    1  UNL1       -0.0545
      5 C          63.2293   88.9561   12.8599 C.ar    1  UNL1        0.2069
      6 N          62.5899   88.5312   11.5713 N.ar    1  UNL1       -0.2242
      7 C          62.5109   87.0756   11.2174 C.ar    1  UNL1        0.0768
      8 C          61.8715   86.6507    9.9288 C.ar    1  UNL1        0.0182
      9 C          61.7925   85.1952    9.5750 C.ar    1  UNL1        0.0015
     10 C          62.3530   84.1646   10.5098 C.ar    1  UNL1        0.0006
     11 C          62.9925   84.5896   11.7983 C.ar    1  UNL1        0.0077
     12 C          63.0714   86.0451   12.1522 C.ar    1  UNL1        0.0443
     13 S          63.7109   86.4701   13.4408 S.3     1  UNL1       -0.0753
     14 C          63.7898   87.9256   13.7946 C.3     1  UNL1        0.2085
     15 C          64.1009   89.1737   14.5662 C.ar    1  UNL1        0.0190
     16 C          63.2406   89.5706   15.7291 C.ar    1  UNL1       -0.0002
     17 C          63.5517   90.8188   16.5006 C.ar    1  UNL1        0.0065
     18 C          64.7231   91.6700   16.1093 C.ar    1  UNL1        0.0345
     19 BR         65.0342   92.9183   16.8808 Br      1  UNL1       -0.0490
     20 C          65.5834   91.2732   14.9464 C.ar    1  UNL1        0.0065
     21 C          65.2723   90.0250   14.1749 C.ar    1  UNL1       -0.0002
     22 O          64.4583   87.3285   14.9973 O.3     1  UNL1       -0.3293
     23 C          64.0101   85.9960   15.5204 C.3     1  UNL1        0.2470
     24 C          63.0615   85.9261   16.6802 C.3     1  UNL1        0.4249
     25 F          62.1129   85.8561   17.8401 F       1  UNL1       -0.1674
     26 F          62.5225   84.6262   16.1610 F       1  UNL1       -0.1674
     27 F          63.6006   87.2260   17.1995 F       1  UNL1       -0.1674
@<TRIPOS>BOND
     1     1     2    2
     2     2     3   ar
     3     3     4   ar
     4     4     5   ar
     5     5     6   ar
     6     6     7    1
     7     7     8   ar
     8     8     9   ar
     9     9    10   ar
    10    10    11   ar
    11    11    12   ar
    12    12    13    1
    13    13    14    1
    14    14    22    1
    15    22    23    1
    16    23    24    1
    17    24    25    1
    18    24    26    1
    19    24    27    1
    20    14    15    1
    21    15    16   ar
    22    16    17   ar
    23    17    18   ar
    24    18    19    1
    25    18    20   ar
    26    20    21   ar
    27     6     2   ar
    28    12     7   ar
    29    21    15   ar
    30    14     5    1
