@<TRIPOS>MOLECULE
*****
 35 39 0 0 0
SMALL
GASTEIGER

@<TRIPOS>ATOM
      1 C          61.7699   87.2469   10.9701 C.3     1  UNL1        0.0342
      2 C          62.4726   86.2232   11.8115 C.ar    1  UNL1        0.0137
      3 C          62.3619   84.7670   11.4693 C.ar    1  UNL1        0.0802
      4 N          63.0647   83.7432   12.3107 N.ar    1  UNL1       -0.2717
      5 C          63.8782   84.1756   13.4944 C.ar    1  UNL1        0.2677
      6 O          64.5810   83.1518   14.3358 O.2     1  UNL1       -0.2665
      7 C          63.9889   85.6319   13.8367 C.ar    1  UNL1        0.0931
      8 C          64.8024   86.0643   15.0204 C.ar    1  UNL1        0.1081
      9 N          64.9131   87.5205   15.3627 N.ar    1  UNL1       -0.2119
     10 C          64.2104   88.5442   14.5213 C.ar    1  UNL1        0.2207
     11 N          63.3969   88.1118   13.3376 N.ar    1  UNL1       -0.2137
     12 C          63.2862   86.6556   12.9953 C.ar    1  UNL1        0.0877
     13 C          62.9540   82.2869   11.9683 C.ar    1  UNL1        0.0879
     14 C          63.5214   81.7746   10.6778 C.ar    1  UNL1        0.0746
     15 CL         64.1997   82.7185    9.7296 Cl      1  UNL1       -0.0807
     16 C          63.4107   80.3184   10.3356 C.ar    1  UNL1        0.0129
     17 C          62.7324   79.3746   11.2838 C.ar    1  UNL1        0.0018
     18 C          62.1650   79.8869   12.5743 C.ar    1  UNL1        0.0129
     19 C          62.2757   81.3431   12.9166 C.ar    1  UNL1        0.0746
     20 CL         61.7083   81.8555   14.2071 Cl      1  UNL1       -0.0807
     21 N          64.3211   90.0005   14.8636 N.pl3   1  UNL1       -0.2825
     22 H          64.0827   90.3135   15.7661 H       1  UNL1        0.1551
     23 C          64.7951   90.9798   13.8310 C.ar    1  UNL1        0.0505
     24 C          66.0063   91.8234   14.0976 C.ar    1  UNL1        0.0159
     25 C          66.4803   92.8027   13.0649 C.ar    1  UNL1        0.0158
     26 C          65.7430   92.9383   11.7657 C.ar    1  UNL1        0.0480
     27 C          64.5317   92.0946   11.4991 C.ar    1  UNL1        0.0158
     28 C          64.0577   91.1154   12.5317 C.ar    1  UNL1        0.0159
     29 N          66.2169   93.9176   10.7330 N.pl3   1  UNL1       -0.3046
     30 C          65.7383   95.3386   10.7715 C.3     1  UNL1        0.1081
     31 C          66.2123   96.3179    9.7388 C.3     1  UNL1        0.0938
     32 N          67.1649   95.8761    8.6677 N.3     1  UNL1       -0.2686
     33 C          67.6389   96.8554    7.6351 C.3     1  UNL1        0.0897
     34 C          67.6435   94.4550    8.6292 C.3     1  UNL1        0.0938
     35 C          67.1696   93.4758    9.6619 C.3     1  UNL1        0.1081
@<TRIPOS>BOND
     1     1     2    1
     2     2     3   ar
     3     3     4   ar
     4     4    13    1
     5    13    14   ar
     6    14    15    1
     7    14    16   ar
     8    16    17   ar
     9    17    18   ar
    10    18    19   ar
    11    19    20    1
    12     4     5   ar
    13     5     6    2
    14     5     7   ar
    15     7     8   ar
    16     8     9   ar
    17     9    10   ar
    18    10    21    1
    19    21    23    1
    20    23    24   ar
    21    24    25   ar
    22    25    26   ar
    23    26    29    1
    24    29    30    1
    25    30    31    1
    26    31    32    1
    27    32    33    1
    28    32    34    1
    29    34    35    1
    30    26    27   ar
    31    27    28   ar
    32    10    11   ar
    33    11    12   ar
    34    12     2   ar
    35    19    13   ar
    36    12     7   ar
    37    28    23   ar
    38    35    29    1
    39    21    22    1
@<TRIPOS>MOLECULE
*****
 35 39 0 0 0
SMALL
GASTEIGER

@<TRIPOS>ATOM
      1 C          61.7921   87.3058   10.8049 C.3     1  UNL1        0.0342
      2 C          62.4643   86.3016   11.6936 C.ar    1  UNL1        0.0137
      3 C          62.3649   84.8380   11.3809 C.ar    1  UNL1        0.0802
      4 N          63.0371   83.8338   12.2696 N.ar    1  UNL1       -0.2717
      5 C          63.8088   84.2933   13.4710 C.ar    1  UNL1        0.2677
      6 O          64.4810   83.2891   14.3597 O.2     1  UNL1       -0.2665
      7 C          63.9082   85.7570   13.7838 C.ar    1  UNL1        0.0931
      8 C          64.6798   86.2165   14.9852 C.ar    1  UNL1        0.1081
      9 N          64.7793   87.6801   15.2979 N.ar    1  UNL1       -0.2119
     10 C          64.1071   88.6843   14.4092 C.ar    1  UNL1        0.2207
     11 N          63.3354   88.2248   13.2078 N.ar    1  UNL1       -0.2137
     12 C          63.2360   86.7612   12.8951 C.ar    1  UNL1        0.0877
     13 C          62.9377   82.3701   11.9568 C.ar    1  UNL1        0.0879
     14 C          62.2561   81.4423   12.9184 C.ar    1  UNL1        0.0746
     15 CL         61.6740   81.9782   14.1928 Cl      1  UNL1       -0.0807
     16 C          62.1567   79.9787   12.6056 C.ar    1  UNL1        0.0129
     17 C          62.7388   79.4429   11.3312 C.ar    1  UNL1        0.0018
     18 C          63.4204   80.3707   10.3697 C.ar    1  UNL1        0.0129
     19 C          63.5198   81.8343   10.6825 C.ar    1  UNL1        0.0746
     20 CL         64.2013   82.7621    9.7209 Cl      1  UNL1       -0.0807
     21 N          64.2065   90.1480   14.7220 N.pl3   1  UNL1       -0.2825
     22 H          63.9486   90.4797   15.6123 H       1  UNL1        0.1551
     23 C          64.6990   91.1062   13.6783 C.ar    1  UNL1        0.0505
     24 C          65.8764   91.9895   13.9669 C.ar    1  UNL1        0.0159
     25 C          66.3689   92.9477   12.9231 C.ar    1  UNL1        0.0158
     26 C          65.6838   93.0225   11.5908 C.ar    1  UNL1        0.0480
     27 C          64.5064   92.1392   11.3022 C.ar    1  UNL1        0.0158
     28 C          64.0139   91.1810   12.3459 C.ar    1  UNL1        0.0159
     29 N          66.1763   93.9807   10.5471 N.pl3   1  UNL1       -0.3046
     30 C          67.1936   93.5342    9.5393 C.3     1  UNL1        0.1081
     31 C          67.6860   94.4925    8.4955 C.3     1  UNL1        0.0938
     32 N          67.1611   95.8972    8.4596 N.3     1  UNL1       -0.2686
     33 C          67.6536   96.8553    7.4159 C.3     1  UNL1        0.0897
     34 C          66.1438   96.3437    9.4675 C.3     1  UNL1        0.0938
     35 C          65.6514   95.3855   10.5112 C.3     1  UNL1        0.1081
@<TRIPOS>BOND
     1     1     2    1
     2     2     3   ar
     3     3     4   ar
     4     4    13    1
     5    13    14   ar
     6    14    15    1
     7    14    16   ar
     8    16    17   ar
     9    17    18   ar
    10    18    19   ar
    11    19    20    1
    12     4     5   ar
    13     5     6    2
    14     5     7   ar
    15     7     8   ar
    16     8     9   ar
    17     9    10   ar
    18    10    21    1
    19    21    23    1
    20    23    24   ar
    21    24    25   ar
    22    25    26   ar
    23    26    29    1
    24    29    30    1
    25    30    31    1
    26    31    32    1
    27    32    33    1
    28    32    34    1
    29    34    35    1
    30    26    27   ar
    31    27    28   ar
    32    10    11   ar
    33    11    12   ar
    34    12     2   ar
    35    19    13   ar
    36    12     7   ar
    37    28    23   ar
    38    35    29    1
    39    21    22    1
@<TRIPOS>MOLECULE
*****
 35 39 0 0 0
SMALL
GASTEIGER

@<TRIPOS>ATOM
      1 C          63.0726   90.5191   10.9307 C.3     1  UNL1        0.0342
      2 C          64.0918   91.5031   11.4239 C.ar    1  UNL1        0.0137
      3 C          64.6991   92.4932   10.4747 C.ar    1  UNL1        0.0802
      4 N          65.7182   93.4771   10.9679 N.ar    1  UNL1       -0.2717
      5 C          66.1301   93.4709   12.4101 C.ar    1  UNL1        0.2677
      6 O          67.1493   94.4549   12.9033 O.2     1  UNL1       -0.2665
      7 C          65.5229   92.4808   13.3594 C.ar    1  UNL1        0.0931
      8 C          65.9348   92.4746   14.8017 C.ar    1  UNL1        0.1081
      9 N          65.3275   91.4845   15.7508 N.ar    1  UNL1       -0.2119
     10 C          64.3084   90.5006   15.2577 C.ar    1  UNL1        0.2207
     11 N          63.8965   90.5068   13.8154 N.ar    1  UNL1       -0.2137
     12 C          64.5037   91.4969   12.8662 C.ar    1  UNL1        0.0877
     13 C          66.3255   94.4672   10.0186 C.ar    1  UNL1        0.0879
     14 C          65.7879   95.8658    9.9484 C.ar    1  UNL1        0.0746
     15 CL         64.6431   96.2743   10.8273 Cl      1  UNL1       -0.0807
     16 C          66.3952   96.8558    8.9992 C.ar    1  UNL1        0.0129
     17 C          67.5400   96.4473    8.1202 C.ar    1  UNL1        0.0018
     18 C          68.0775   95.0487    8.1905 C.ar    1  UNL1        0.0129
     19 C          67.4702   94.0587    9.1397 C.ar    1  UNL1        0.0746
     20 CL         68.0078   92.6600    9.2100 Cl      1  UNL1       -0.0807
     21 N          63.7011   89.5105   16.2069 N.pl3   1  UNL1       -0.2825
     22 H          63.3901   89.8052   17.0932 H       1  UNL1        0.1551
     23 C          63.5678   88.0713   15.8057 C.ar    1  UNL1        0.0505
     24 C          62.9720   87.0788   16.7596 C.ar    1  UNL1        0.0159
     25 C          62.8387   85.6396   16.3583 C.ar    1  UNL1        0.0158
     26 C          63.3012   85.1930   15.0031 C.ar    1  UNL1        0.0480
     27 C          63.8970   86.1854   14.0492 C.ar    1  UNL1        0.0158
     28 C          64.0303   87.6246   14.4504 C.ar    1  UNL1        0.0159
     29 N          63.1679   83.7538   14.6019 N.pl3   1  UNL1       -0.3046
     30 C          61.9122   82.9989   14.9231 C.3     1  UNL1        0.1081
     31 C          61.7789   81.5596   14.5218 C.3     1  UNL1        0.0938
     32 N          62.9014   80.8754   13.7994 N.3     1  UNL1       -0.2686
     33 C          62.7681   79.4363   13.3982 C.3     1  UNL1        0.0897
     34 C          64.1571   81.6304   13.4782 C.3     1  UNL1        0.0938
     35 C          64.2904   83.0695   13.8794 C.3     1  UNL1        0.1081
@<TRIPOS>BOND
     1     1     2    1
     2     2     3   ar
     3     3     4   ar
     4     4    13    1
     5    13    14   ar
     6    14    15    1
     7    14    16   ar
     8    16    17   ar
     9    17    18   ar
    10    18    19   ar
    11    19    20    1
    12     4     5   ar
    13     5     6    2
    14     5     7   ar
    15     7     8   ar
    16     8     9   ar
    17     9    10   ar
    18    10    21    1
    19    21    23    1
    20    23    24   ar
    21    24    25   ar
    22    25    26   ar
    23    26    29    1
    24    29    30    1
    25    30    31    1
    26    31    32    1
    27    32    33    1
    28    32    34    1
    29    34    35    1
    30    26    27   ar
    31    27    28   ar
    32    10    11   ar
    33    11    12   ar
    34    12     2   ar
    35    19    13   ar
    36    12     7   ar
    37    28    23   ar
    38    35    29    1
    39    21    22    1
