@<TRIPOS>MOLECULE
*****
 41 46 0 0 0
SMALL
GASTEIGER

@<TRIPOS>ATOM
      1 C          63.9551   90.9715   14.1036 C.ar    1  UNL1        0.0000
      2 C          65.1706   91.5287   13.4239 C.ar    1  UNL1        0.0000
      3 O          64.9893   91.3665   11.9438 O.2     1  UNL1        0.0000
      4 C          63.6617   90.7090   11.7087 C.ar    1  UNL1        0.0000
      5 C          62.9523   90.3011   10.4516 C.ar    1  UNL1        0.0000
      6 C          61.6037   89.6491   10.5293 C.ar    1  UNL1        0.0000
      7 C          60.9645   89.4050   11.8642 C.ar    1  UNL1        0.0000
      8 C          61.6739   89.8129   13.1213 C.ar    1  UNL1        0.0000
      9 C          63.0225   90.4649   13.0435 C.ar    1  UNL1        0.0000
     10 C          66.3589   92.1407   14.1048 C.ar    1  UNL1        0.0000
     11 C          67.4050   91.2607   14.7223 C.ar    1  UNL1        0.0000
     12 C          68.5932   91.8727   15.4032 C.ar    1  UNL1        0.0000
     13 C          68.7353   93.3646   15.4666 C.ar    1  UNL1        0.0000
     14 F          69.9235   93.9765   16.1475 F       1  UNL1        0.0000
     15 C          67.6892   94.2445   14.8492 C.ar    1  UNL1        0.0000
     16 C          66.5010   93.6325   14.1683 C.ar    1  UNL1        0.0000
     17 C          63.1744   89.5788   17.7369 C.3     1  UNL1        0.0000
     18 N          63.4152   89.6219   16.2570 N.am    1  UNL1        0.0000
     19 C          63.7143   90.9284   15.5835 C.2     1  UNL1        0.0000
     20 O          63.7726   92.1918   16.3900 O.2     1  UNL1        0.0000
     21 H          63.3769   88.7926   15.7277 H       1  UNL1        0.0000
     22 N          60.8942   89.2412    9.2722 N.ar    1  UNL1        0.0000
     23 N          60.0304   90.1241    8.4211 N.ar    1  UNL1        0.0000
     24 C          59.5264   89.3073    7.2684 C.ar    1  UNL1        0.0000
     25 N          60.0787   87.9195    7.4071 N.ar    1  UNL1        0.0000
     26 C          60.9241   87.8787    8.6455 C.ar    1  UNL1        0.0000
     27 C          61.6685   86.6850    9.1658 C.ar    1  UNL1        0.0000
     28 C          62.5395   85.8839    8.2439 C.ar    1  UNL1        0.0000
     29 C          63.2841   84.6902    8.7641 C.ar    1  UNL1        0.0000
     30 C          63.1576   84.2975   10.2064 C.ar    1  UNL1        0.0000
     31 C          62.2866   85.0985   11.1282 C.ar    1  UNL1        0.0000
     32 F          62.1601   84.7058   12.5703 F       1  UNL1        0.0000
     33 C          61.5421   86.2922   10.6079 C.ar    1  UNL1        0.0000
     34 B          63.9021   83.1037   10.7267 B       1  UNL1        0.0000
     35 O          63.4024   81.7207   10.4306 O.3     1  UNL1        0.0000
     36 O          65.1462   83.2931   11.5430 O.3     1  UNL1        0.0000
     37 H          62.5947   81.7762    9.8963 H       1  UNL1        0.0000
     38 H          65.3281   84.2409   11.6399 H       1  UNL1        0.0000
     39 C          59.6158   88.7530   11.9419 C.3     1  UNL1        0.0000
     40 C          58.3046   88.5604   12.6444 C.3     1  UNL1        0.0000
     41 C          58.5911   87.8163   11.3740 C.3     1  UNL1        0.0000
@<TRIPOS>BOND
     1    17    18    1
     2    18    19   am
     3    19    20    2
     4    19     1    1
     5     1     2   ar
     6     2    10    1
     7    10    11   ar
     8    11    12   ar
     9    12    13   ar
    10    13    14    1
    11    13    15   ar
    12    15    16   ar
    13     2     3   ar
    14     3     4   ar
    15     4     5   ar
    16     5     6   ar
    17     6    22    1
    18    22    23   ar
    19    23    24   ar
    20    24    25   ar
    21    25    26   ar
    22    26    27    1
    23    27    28   ar
    24    28    29   ar
    25    29    30   ar
    26    30    34    1
    27    34    35    1
    28    34    36    1
    29    30    31   ar
    30    31    32    1
    31    31    33   ar
    32     6     7   ar
    33     7    39    1
    34    39    40    1
    35    40    41    1
    36     7     8   ar
    37     8     9   ar
    38     9     1   ar
    39    16    10   ar
    40     9     4   ar
    41    26    22   ar
    42    33    27   ar
    43    41    39    1
    44    18    21    1
    45    35    37    1
    46    36    38    1
@<TRIPOS>MOLECULE
*****
 41 46 0 0 0
SMALL
GASTEIGER

@<TRIPOS>ATOM
      1 C          64.9871   91.0080   13.9621 C.ar    1  UNL1        0.0000
      2 C          64.9361   91.4501   12.5296 C.ar    1  UNL1        0.0000
      3 O          64.4237   90.3039   11.7088 O.2     1  UNL1        0.0000
      4 C          64.1581   89.1534   12.6339 C.ar    1  UNL1        0.0000
      5 C          63.6441   87.7659   12.3882 C.ar    1  UNL1        0.0000
      6 C          63.4783   86.8134   13.5351 C.ar    1  UNL1        0.0000
      7 C          63.8265   87.2486   14.9277 C.ar    1  UNL1        0.0000
      8 C          64.3405   88.6362   15.1734 C.ar    1  UNL1        0.0000
      9 C          64.5062   89.5886   14.0266 C.ar    1  UNL1        0.0000
     10 C          65.3286   92.8011   12.0094 C.ar    1  UNL1        0.0000
     11 C          65.0200   93.1770   10.5904 C.ar    1  UNL1        0.0000
     12 C          65.4125   94.5280   10.0701 C.ar    1  UNL1        0.0000
     13 C          66.1135   95.5032   10.9688 C.ar    1  UNL1        0.0000
     14 F          66.5059   96.8542   10.4486 F       1  UNL1        0.0000
     15 C          66.4220   95.1273   12.3878 C.ar    1  UNL1        0.0000
     16 C          66.0295   93.7763   12.9080 C.ar    1  UNL1        0.0000
     17 C          67.3476   92.9883   16.4635 C.3     1  UNL1        0.0000
     18 N          66.8952   92.1569   15.2997 N.am    1  UNL1        0.0000
     19 C          65.4395   91.8393   15.1258 C.2     1  UNL1        0.0000
     20 O          64.4364   92.3530   16.1156 O.2     1  UNL1        0.0000
     21 H          67.5536   91.8198   14.6501 H       1  UNL1        0.0000
     22 N          62.9644   85.4258   13.2893 N.ar    1  UNL1        0.0000
     23 N          63.2822   84.2099   14.1083 N.ar    1  UNL1        0.0000
     24 C          62.5566   83.0431   13.5066 C.ar    1  UNL1        0.0000
     25 N          61.7903   83.5378   12.3157 N.ar    1  UNL1        0.0000
     26 C          62.0423   85.0104   12.1815 C.ar    1  UNL1        0.0000
     27 C          61.4724   85.9097   11.1249 C.ar    1  UNL1        0.0000
     28 C          61.6468   85.5676    9.6748 C.ar    1  UNL1        0.0000
     29 C          61.0770   86.4668    8.6181 C.ar    1  UNL1        0.0000
     30 C          60.3325   87.7083    9.0115 C.ar    1  UNL1        0.0000
     31 C          60.1580   88.0504   10.4616 C.ar    1  UNL1        0.0000
     32 F          59.4136   89.2918   10.8550 F       1  UNL1        0.0000
     33 C          60.7280   87.1511   11.5182 C.ar    1  UNL1        0.0000
     34 B          59.7626   88.6075    7.9549 B       1  UNL1        0.0000
     35 O          58.7268   88.0849    7.0041 O.3     1  UNL1        0.0000
     36 O          60.2284   90.0294    7.8491 O.3     1  UNL1        0.0000
     37 H          58.5402   87.1551    7.2084 H       1  UNL1        0.0000
     38 H          60.8940   90.2033    8.5330 H       1  UNL1        0.0000
     39 C          63.6607   86.2961   16.0746 C.3     1  UNL1        0.0000
     40 C          63.0167   85.9344   17.3801 C.3     1  UNL1        0.0000
     41 C          64.0175   85.0080   16.7555 C.3     1  UNL1        0.0000
@<TRIPOS>BOND
     1    17    18    1
     2    18    19   am
     3    19    20    2
     4    19     1    1
     5     1     2   ar
     6     2    10    1
     7    10    11   ar
     8    11    12   ar
     9    12    13   ar
    10    13    14    1
    11    13    15   ar
    12    15    16   ar
    13     2     3   ar
    14     3     4   ar
    15     4     5   ar
    16     5     6   ar
    17     6    22    1
    18    22    23   ar
    19    23    24   ar
    20    24    25   ar
    21    25    26   ar
    22    26    27    1
    23    27    28   ar
    24    28    29   ar
    25    29    30   ar
    26    30    34    1
    27    34    35    1
    28    34    36    1
    29    30    31   ar
    30    31    32    1
    31    31    33   ar
    32     6     7   ar
    33     7    39    1
    34    39    40    1
    35    40    41    1
    36     7     8   ar
    37     8     9   ar
    38     9     1   ar
    39    16    10   ar
    40     9     4   ar
    41    26    22   ar
    42    33    27   ar
    43    41    39    1
    44    18    21    1
    45    35    37    1
    46    36    38    1
