@<TRIPOS>MOLECULE
*****
 30 33 0 0 0
SMALL
GASTEIGER

@<TRIPOS>ATOM
      1 C          63.4834   90.5201   14.4705 C.2     1  UNL1        0.2505
      2 O          63.5006   91.7219   15.3679 O.2     1  UNL1       -0.2699
      3 N          63.4522   89.1423   15.0627 N.am    1  UNL1       -0.2767
      4 C          63.4350   87.9405   14.1653 C.3     1  UNL1        0.1065
      5 C          63.4039   86.5626   14.7575 C.3     1  UNL1        0.0843
      6 C          63.3899   86.3867   16.2470 C.3     1  UNL1        0.0164
      7 C          63.4071   87.5885   17.1444 C.3     1  UNL1        0.0209
      8 C          63.4383   88.9663   16.5523 C.3     1  UNL1        0.0758
      9 C          63.4555   90.1681   17.4497 C.3     1  UNL1        0.0215
     10 C          61.4082   89.5548    9.8055 C.3     1  UNL1        0.0310
     11 C          62.4597   90.2135   10.6484 C.ar    1  UNL1       -0.0216
     12 C          63.5252   91.0481   10.0018 C.ar    1  UNL1       -0.0026
     13 C          64.5767   91.7067   10.8447 C.ar    1  UNL1        0.0207
     14 C          64.5628   91.5308   12.3343 C.ar    1  UNL1        0.1072
     15 C          63.4973   90.6961   12.9809 C.ar    1  UNL1        0.0726
     16 C          62.4458   90.0375   12.1380 C.ar    1  UNL1        0.0018
     17 N          65.6143   92.1894   13.1772 N.ar    1  UNL1       -0.1477
     18 N          65.7512   93.6625   13.4244 N.ar    1  UNL1       -0.1447
     19 C          66.9350   93.8741   14.3209 C.ar    1  UNL1        0.1446
     20 C          67.5299   92.5318   14.6277 C.ar    1  UNL1        0.1446
     21 N          66.7136   91.4905   13.9209 N.ar    1  UNL1       -0.1447
     22 C          63.3867   85.3608   13.8601 C.1     1  UNL1       -0.0842
     23 C          63.3695   84.1590   12.9627 C.1     1  UNL1       -0.0451
     24 C          63.3522   82.9572   12.0653 C.ar    1  UNL1        0.1227
     25 C          63.9587   83.0352   10.6955 C.ar    1  UNL1        0.0299
     26 C          63.9415   81.8334    9.7981 C.ar    1  UNL1        0.0334
     27 C          63.3178   80.5535   10.2705 C.ar    1  UNL1        0.1593
     28 F          63.3006   79.3517    9.3731 F       1  UNL1       -0.2025
     29 C          62.7115   80.4755   11.6402 C.ar    1  UNL1        0.1291
     30 N          62.7287   81.6773   12.5376 N.ar    1  UNL1       -0.2332
@<TRIPOS>BOND
     1    10    11    1
     2    11    12   ar
     3    12    13   ar
     4    13    14   ar
     5    14    17    1
     6    17    18   ar
     7    18    19   ar
     8    19    20   ar
     9    20    21   ar
    10    14    15   ar
    11    15     1    1
    12     1     2    2
    13     1     3   am
    14     3     4    1
    15     4     5    1
    16     5    22    1
    17    22    23    3
    18    23    24    1
    19    24    25   ar
    20    25    26   ar
    21    26    27   ar
    22    27    28    1
    23    27    29   ar
    24    29    30   ar
    25     5     6    1
    26     6     7    1
    27     7     8    1
    28     8     9    1
    29    15    16   ar
    30    16    11   ar
    31    21    17   ar
    32     8     3    1
    33    30    24   ar
@<TRIPOS>MOLECULE
*****
 30 33 0 0 0
SMALL
GASTEIGER

@<TRIPOS>ATOM
      1 C          62.6119   85.1848   13.7575 C.2     1  UNL1        0.2505
      2 O          62.1144   83.9726   14.4877 O.2     1  UNL1       -0.2699
      3 N          63.0478   86.3969   14.5261 N.am    1  UNL1       -0.2767
      4 C          63.5453   87.6091   13.7960 C.3     1  UNL1        0.1065
      5 C          63.9812   88.8212   14.5646 C.3     1  UNL1        0.0843
      6 C          63.9196   88.8211   16.0633 C.3     1  UNL1        0.0164
      7 C          63.4221   87.6089   16.7934 C.3     1  UNL1        0.0209
      8 C          62.9862   86.3968   16.0249 C.3     1  UNL1        0.0758
      9 C          62.4887   85.1846   16.7550 C.3     1  UNL1        0.0215
     10 C          62.2168   87.7174    9.2376 C.3     1  UNL1        0.0310
     11 C          62.4759   86.4511    9.9988 C.ar    1  UNL1       -0.0216
     12 C          62.7965   85.1850    9.2613 C.ar    1  UNL1       -0.0026
     13 C          63.0556   83.9187   10.0226 C.ar    1  UNL1        0.0207
     14 C          62.9941   83.9186   11.5213 C.ar    1  UNL1        0.1072
     15 C          62.6734   85.1848   12.2587 C.ar    1  UNL1        0.0726
     16 C          62.4143   86.4511   11.4975 C.ar    1  UNL1        0.0018
     17 N          63.2531   82.6524   12.2825 N.ar    1  UNL1       -0.1477
     18 N          64.5128   82.3098   13.0213 N.ar    1  UNL1       -0.1447
     19 C          64.3362   80.9520   13.6340 C.ar    1  UNL1        0.1446
     20 C          62.9674   80.4555   13.2738 C.ar    1  UNL1        0.1446
     21 N          62.2980   81.5063   12.4385 N.ar    1  UNL1       -0.1447
     22 C          64.4787   90.0334   13.8345 C.1     1  UNL1       -0.0842
     23 C          64.9762   91.2456   13.1043 C.1     1  UNL1       -0.0451
     24 C          65.4737   92.4578   12.3742 C.ar    1  UNL1        0.1227
     25 C          65.5633   92.4471   10.8769 C.ar    1  UNL1        0.0299
     26 C          66.0608   93.6593   10.1467 C.ar    1  UNL1        0.0334
     27 C          66.4687   94.8821   10.9139 C.ar    1  UNL1        0.1593
     28 F          66.9662   96.0943   10.1838 F       1  UNL1       -0.2025
     29 C          66.3790   94.8927   12.4112 C.ar    1  UNL1        0.1291
     30 N          65.8815   93.6805   13.1413 N.ar    1  UNL1       -0.2332
@<TRIPOS>BOND
     1    10    11    1
     2    11    12   ar
     3    12    13   ar
     4    13    14   ar
     5    14    17    1
     6    17    18   ar
     7    18    19   ar
     8    19    20   ar
     9    20    21   ar
    10    14    15   ar
    11    15     1    1
    12     1     2    2
    13     1     3   am
    14     3     4    1
    15     4     5    1
    16     5    22    1
    17    22    23    3
    18    23    24    1
    19    24    25   ar
    20    25    26   ar
    21    26    27   ar
    22    27    28    1
    23    27    29   ar
    24    29    30   ar
    25     5     6    1
    26     6     7    1
    27     7     8    1
    28     8     9    1
    29    15    16   ar
    30    16    11   ar
    31    21    17   ar
    32     8     3    1
    33    30    24   ar
@<TRIPOS>MOLECULE
*****
 30 33 0 0 0
SMALL
GASTEIGER

@<TRIPOS>ATOM
      1 C          61.1793   86.4988    9.7120 C.2     1  UNL1        0.2505
      2 O          60.1009   85.9697    8.8137 O.2     1  UNL1       -0.2699
      3 N          61.2508   87.9663   10.0142 N.am    1  UNL1       -0.2767
      4 C          62.3292   88.4954   10.9126 C.3     1  UNL1        0.1065
      5 C          62.4006   89.9630   11.2148 C.3     1  UNL1        0.0843
      6 C          61.3936   90.9013   10.6187 C.3     1  UNL1        0.0164
      7 C          60.3151   90.3722    9.7203 C.3     1  UNL1        0.0209
      8 C          60.2437   88.9047    9.4181 C.3     1  UNL1        0.0758
      9 C          59.1652   88.3756    8.5198 C.3     1  UNL1        0.0215
     10 C          63.7348   84.6794   13.8544 C.3     1  UNL1        0.0310
     11 C          63.4641   84.6507   12.3793 C.ar    1  UNL1       -0.0216
     12 C          64.2004   83.6837   11.5004 C.ar    1  UNL1       -0.0026
     13 C          63.9297   83.6549   10.0253 C.ar    1  UNL1        0.0207
     14 C          62.9227   84.5933    9.4292 C.ar    1  UNL1        0.1072
     15 C          62.1864   85.5604   10.3081 C.ar    1  UNL1        0.0726
     16 C          62.4571   85.5891   11.7832 C.ar    1  UNL1        0.0018
     17 N          62.6519   84.5646    7.9541 N.ar    1  UNL1       -0.1477
     18 N          63.6189   84.9458    6.8726 N.ar    1  UNL1       -0.1447
     19 C          62.9313   84.7665    5.5516 C.ar    1  UNL1        0.1446
     20 C          61.5393   84.2743    5.8166 C.ar    1  UNL1        0.1446
     21 N          61.3667   84.1496    7.3014 N.ar    1  UNL1       -0.1447
     22 C          63.4790   90.4921   12.1131 C.1     1  UNL1       -0.0842
     23 C          64.5575   91.0212   13.0114 C.1     1  UNL1       -0.0451
     24 C          65.6359   91.5504   13.9097 C.ar    1  UNL1        0.1227
     25 C          67.0526   91.6185   13.4212 C.ar    1  UNL1        0.0299
     26 C          68.1310   92.1477   14.3195 C.ar    1  UNL1        0.0334
     27 C          67.7928   92.6086   15.7063 C.ar    1  UNL1        0.1593
     28 F          68.8713   93.1378   16.6046 F       1  UNL1       -0.2025
     29 C          66.3763   92.5404   16.1948 C.ar    1  UNL1        0.1291
     30 N          65.2978   92.0113   15.2965 N.ar    1  UNL1       -0.2332
@<TRIPOS>BOND
     1    10    11    1
     2    11    12   ar
     3    12    13   ar
     4    13    14   ar
     5    14    17    1
     6    17    18   ar
     7    18    19   ar
     8    19    20   ar
     9    20    21   ar
    10    14    15   ar
    11    15     1    1
    12     1     2    2
    13     1     3   am
    14     3     4    1
    15     4     5    1
    16     5    22    1
    17    22    23    3
    18    23    24    1
    19    24    25   ar
    20    25    26   ar
    21    26    27   ar
    22    27    28    1
    23    27    29   ar
    24    29    30   ar
    25     5     6    1
    26     6     7    1
    27     7     8    1
    28     8     9    1
    29    15    16   ar
    30    16    11   ar
    31    21    17   ar
    32     8     3    1
    33    30    24   ar
@<TRIPOS>MOLECULE
*****
 30 33 0 0 0
SMALL
GASTEIGER

@<TRIPOS>ATOM
      1 C          62.2009   85.5128   12.0225 C.2     1  UNL1        0.2505
      2 O          61.3009   84.5840   11.2627 O.2     1  UNL1       -0.2699
      3 N          62.3768   86.9297   11.5627 N.am    1  UNL1       -0.2767
      4 C          63.2768   87.8585   12.3224 C.3     1  UNL1        0.1065
      5 C          63.4527   89.2755   11.8626 C.3     1  UNL1        0.0843
      6 C          62.7286   89.7635   10.6429 C.3     1  UNL1        0.0164
      7 C          61.8287   88.8346    9.8831 C.3     1  UNL1        0.0209
      8 C          61.6527   87.4178   10.3430 C.3     1  UNL1        0.0758
      9 C          60.7528   86.4889    9.5832 C.3     1  UNL1        0.0215
     10 C          63.5551   86.1320   17.0007 C.3     1  UNL1        0.0310
     11 C          63.6020   85.3343   15.7313 C.ar    1  UNL1       -0.0216
     12 C          64.3731   84.0487   15.6814 C.ar    1  UNL1       -0.0026
     13 C          64.4201   83.2510   14.4120 C.ar    1  UNL1        0.0207
     14 C          63.6960   83.7390   13.1923 C.ar    1  UNL1        0.1072
     15 C          62.9250   85.0247   13.2422 C.ar    1  UNL1        0.0726
     16 C          62.8780   85.8224   14.5116 C.ar    1  UNL1        0.0018
     17 N          63.7430   82.9414   11.9229 N.ar    1  UNL1       -0.1477
     18 N          62.9290   81.7186   11.6192 N.ar    1  UNL1       -0.1447
     19 C          63.2952   81.2480   10.2428 C.ar    1  UNL1        0.1446
     20 C          64.3355   82.1799    9.6958 C.ar    1  UNL1        0.1446
     21 N          64.6122   83.2265   10.7341 N.ar    1  UNL1       -0.1447
     22 C          64.3527   90.2043   12.6224 C.1     1  UNL1       -0.0842
     23 C          65.2526   91.1332   13.3821 C.1     1  UNL1       -0.0451
     24 C          66.1526   92.0620   14.1419 C.ar    1  UNL1        0.1227
     25 C          67.0017   91.5353   15.2607 C.ar    1  UNL1        0.0299
     26 C          67.9017   92.4641   16.0205 C.ar    1  UNL1        0.0334
     27 C          67.9526   93.9197   15.6615 C.ar    1  UNL1        0.1593
     28 F          68.8525   94.8486   16.4213 F       1  UNL1       -0.2025
     29 C          67.1035   94.4464   14.5428 C.ar    1  UNL1        0.1291
     30 N          66.2035   93.5175   13.7830 N.ar    1  UNL1       -0.2332
@<TRIPOS>BOND
     1    10    11    1
     2    11    12   ar
     3    12    13   ar
     4    13    14   ar
     5    14    17    1
     6    17    18   ar
     7    18    19   ar
     8    19    20   ar
     9    20    21   ar
    10    14    15   ar
    11    15     1    1
    12     1     2    2
    13     1     3   am
    14     3     4    1
    15     4     5    1
    16     5    22    1
    17    22    23    3
    18    23    24    1
    19    24    25   ar
    20    25    26   ar
    21    26    27   ar
    22    27    28    1
    23    27    29   ar
    24    29    30   ar
    25     5     6    1
    26     6     7    1
    27     7     8    1
    28     8     9    1
    29    15    16   ar
    30    16    11   ar
    31    21    17   ar
    32     8     3    1
    33    30    24   ar
@<TRIPOS>MOLECULE
*****
 30 33 0 0 0
SMALL
GASTEIGER

@<TRIPOS>ATOM
      1 C          62.7429   85.2226   13.9356 C.2     1  UNL1        0.2505
      2 O          62.3152   84.0202   14.7239 O.2     1  UNL1       -0.2699
      3 N          63.1356   86.4841   14.6457 N.am    1  UNL1       -0.2767
      4 C          63.5632   87.6864   13.8574 C.3     1  UNL1        0.1065
      5 C          63.9560   88.9480   14.5676 C.3     1  UNL1        0.0843
      6 C          63.9211   89.0071   16.0660 C.3     1  UNL1        0.0164
      7 C          63.4934   87.8048   16.8543 C.3     1  UNL1        0.0209
      8 C          63.1007   86.5433   16.1442 C.3     1  UNL1        0.0758
      9 C          62.6730   85.3409   16.9324 C.3     1  UNL1        0.0215
     10 C          62.4321   87.6073    9.3294 C.3     1  UNL1        0.0310
     11 C          62.6224   86.3558   10.1341 C.ar    1  UNL1       -0.0216
     12 C          62.8476   85.0451    9.4403 C.ar    1  UNL1       -0.0026
     13 C          63.0378   83.7936   10.2449 C.ar    1  UNL1        0.0207
     14 C          63.0029   83.8527   11.7433 C.ar    1  UNL1        0.1072
     15 C          62.7778   85.1634   12.4371 C.ar    1  UNL1        0.0726
     16 C          62.5875   86.4149   11.6325 C.ar    1  UNL1        0.0018
     17 N          63.1932   82.6011   12.5479 N.ar    1  UNL1       -0.1477
     18 N          62.1043   81.7820   13.1751 N.ar    1  UNL1       -0.1447
     19 C          62.7439   80.6236   13.8814 C.ar    1  UNL1        0.1446
     20 C          64.2281   80.7267   13.6909 C.ar    1  UNL1        0.1446
     21 N          64.5058   81.9489   12.8667 N.ar    1  UNL1       -0.1447
     22 C          64.3836   90.1504   13.7793 C.1     1  UNL1       -0.0842
     23 C          64.8113   91.3528   12.9910 C.1     1  UNL1       -0.0451
     24 C          65.2389   92.5552   12.2027 C.ar    1  UNL1        0.1227
     25 C          66.0523   93.6315   12.8585 C.ar    1  UNL1        0.0299
     26 C          66.4800   94.8338   12.0703 C.ar    1  UNL1        0.0334
     27 C          66.0942   94.9599   10.6261 C.ar    1  UNL1        0.1593
     28 F          66.5219   96.1623    9.8378 F       1  UNL1       -0.2025
     29 C          65.2809   93.8836    9.9704 C.ar    1  UNL1        0.1291
     30 N          64.8532   92.6813   10.7587 N.ar    1  UNL1       -0.2332
@<TRIPOS>BOND
     1    10    11    1
     2    11    12   ar
     3    12    13   ar
     4    13    14   ar
     5    14    17    1
     6    17    18   ar
     7    18    19   ar
     8    19    20   ar
     9    20    21   ar
    10    14    15   ar
    11    15     1    1
    12     1     2    2
    13     1     3   am
    14     3     4    1
    15     4     5    1
    16     5    22    1
    17    22    23    3
    18    23    24    1
    19    24    25   ar
    20    25    26   ar
    21    26    27   ar
    22    27    28    1
    23    27    29   ar
    24    29    30   ar
    25     5     6    1
    26     6     7    1
    27     7     8    1
    28     8     9    1
    29    15    16   ar
    30    16    11   ar
    31    21    17   ar
    32     8     3    1
    33    30    24   ar
@<TRIPOS>MOLECULE
*****
 30 33 0 0 0
SMALL
GASTEIGER

@<TRIPOS>ATOM
      1 C          62.7159   86.0137   13.6780 C.2     1  UNL1        0.2505
      2 O          62.1059   85.0039   14.6045 O.2     1  UNL1       -0.2699
      3 N          63.1953   87.3300   14.2140 N.am    1  UNL1       -0.2767
      4 C          63.8052   88.3397   13.2875 C.3     1  UNL1        0.1065
      5 C          64.2847   89.6561   13.8235 C.3     1  UNL1        0.0843
      6 C          64.1542   89.9628   15.2860 C.3     1  UNL1        0.0164
      7 C          63.5443   88.9530   16.2125 C.3     1  UNL1        0.0209
      8 C          63.0648   87.6367   15.6765 C.3     1  UNL1        0.0758
      9 C          62.4549   86.6270   16.6030 C.3     1  UNL1        0.0215
     10 C          64.5733   83.0243    9.8552 C.3     1  UNL1        0.0310
     11 C          63.7751   84.2123   10.3041 C.ar    1  UNL1       -0.0216
     12 C          63.1073   85.0936    9.2905 C.ar    1  UNL1       -0.0026
     13 C          62.3091   86.2816    9.7394 C.ar    1  UNL1        0.0207
     14 C          62.1786   86.5883   11.2019 C.ar    1  UNL1        0.1072
     15 C          62.8463   85.7070   12.2154 C.ar    1  UNL1        0.0726
     16 C          63.6446   84.5190   11.7666 C.ar    1  UNL1        0.0018
     17 N          61.3804   87.7763   11.6507 N.ar    1  UNL1       -0.1477
     18 N          61.8483   89.2014   11.6574 N.ar    1  UNL1       -0.1447
     19 C          60.7312   90.0536   12.1825 C.ar    1  UNL1        0.1446
     20 C          59.5728   89.1552   12.5005 C.ar    1  UNL1        0.1446
     21 N          59.9741   87.7477   12.1718 N.ar    1  UNL1       -0.1447
     22 C          64.8946   90.6659   12.8970 C.1     1  UNL1       -0.0842
     23 C          65.5046   91.6756   11.9705 C.1     1  UNL1       -0.0451
     24 C          66.1145   92.6853   11.0440 C.ar    1  UNL1        0.1227
     25 C          67.2978   92.3115   10.2013 C.ar    1  UNL1        0.0299
     26 C          67.9078   93.3212    9.2748 C.ar    1  UNL1        0.0334
     27 C          67.3343   94.7048    9.1909 C.ar    1  UNL1        0.1593
     28 F          67.9443   95.7145    8.2644 F       1  UNL1       -0.2025
     29 C          66.1511   95.0786   10.0336 C.ar    1  UNL1        0.1291
     30 N          65.5411   94.0689   10.9601 N.ar    1  UNL1       -0.2332
@<TRIPOS>BOND
     1    10    11    1
     2    11    12   ar
     3    12    13   ar
     4    13    14   ar
     5    14    17    1
     6    17    18   ar
     7    18    19   ar
     8    19    20   ar
     9    20    21   ar
    10    14    15   ar
    11    15     1    1
    12     1     2    2
    13     1     3   am
    14     3     4    1
    15     4     5    1
    16     5    22    1
    17    22    23    3
    18    23    24    1
    19    24    25   ar
    20    25    26   ar
    21    26    27   ar
    22    27    28    1
    23    27    29   ar
    24    29    30   ar
    25     5     6    1
    26     6     7    1
    27     7     8    1
    28     8     9    1
    29    15    16   ar
    30    16    11   ar
    31    21    17   ar
    32     8     3    1
    33    30    24   ar
@<TRIPOS>MOLECULE
*****
 30 33 0 0 0
SMALL
GASTEIGER

@<TRIPOS>ATOM
      1 C          63.1930   90.8282   11.7791 C.2     1  UNL1        0.2505
      2 O          63.1048   92.2083   11.1981 O.2     1  UNL1       -0.2699
      3 N          62.6635   89.6550   11.0090 N.am    1  UNL1       -0.2767
      4 C          62.7517   88.2749   11.5900 C.3     1  UNL1        0.1065
      5 C          62.2221   87.1016   10.8198 C.3     1  UNL1        0.0843
      6 C          61.6044   87.3085    9.4687 C.3     1  UNL1        0.0164
      7 C          61.5162   88.6886    8.8877 C.3     1  UNL1        0.0209
      8 C          62.0457   89.8618    9.6578 C.3     1  UNL1        0.0758
      9 C          61.9575   91.2419    9.0768 C.3     1  UNL1        0.0215
     10 C          63.2000   88.4736   16.4112 C.3     1  UNL1        0.0310
     11 C          63.8143   89.4440   15.4463 C.ar    1  UNL1       -0.0216
     12 C          65.0462   90.2076   15.8326 C.ar    1  UNL1       -0.0026
     13 C          65.6604   91.1780   14.8677 C.ar    1  UNL1        0.0207
     14 C          65.0427   91.3849   13.5166 C.ar    1  UNL1        0.1072
     15 C          63.8108   90.6213   13.1303 C.ar    1  UNL1        0.0726
     16 C          63.1966   89.6509   14.0952 C.ar    1  UNL1        0.0018
     17 N          65.6570   92.3553   12.5517 N.ar    1  UNL1       -0.1477
     18 N          66.2870   92.0101   11.2349 N.ar    1  UNL1       -0.1447
     19 C          66.7684   93.2828   10.6036 C.ar    1  UNL1        0.1446
     20 C          66.4360   94.4145   11.5302 C.ar    1  UNL1        0.1446
     21 N          65.7491   93.8413   12.7342 N.ar    1  UNL1       -0.1447
     22 C          62.3103   85.7215   11.4008 C.1     1  UNL1       -0.0842
     23 C          62.3985   84.3414   11.9818 C.1     1  UNL1       -0.0451
     24 C          62.4867   82.9613   12.5628 C.ar    1  UNL1        0.1227
     25 C          62.8094   81.7941   11.6776 C.ar    1  UNL1        0.0299
     26 C          62.8976   80.4140   12.2586 C.ar    1  UNL1        0.0334
     27 C          62.6631   80.2011   13.7248 C.ar    1  UNL1        0.1593
     28 F          62.7513   78.8210   14.3058 F       1  UNL1       -0.2025
     29 C          62.3404   81.3683   14.6099 C.ar    1  UNL1        0.1291
     30 N          62.2522   82.7484   14.0289 N.ar    1  UNL1       -0.2332
@<TRIPOS>BOND
     1    10    11    1
     2    11    12   ar
     3    12    13   ar
     4    13    14   ar
     5    14    17    1
     6    17    18   ar
     7    18    19   ar
     8    19    20   ar
     9    20    21   ar
    10    14    15   ar
    11    15     1    1
    12     1     2    2
    13     1     3   am
    14     3     4    1
    15     4     5    1
    16     5    22    1
    17    22    23    3
    18    23    24    1
    19    24    25   ar
    20    25    26   ar
    21    26    27   ar
    22    27    28    1
    23    27    29   ar
    24    29    30   ar
    25     5     6    1
    26     6     7    1
    27     7     8    1
    28     8     9    1
    29    15    16   ar
    30    16    11   ar
    31    21    17   ar
    32     8     3    1
    33    30    24   ar
