@<TRIPOS>MOLECULE
*****
 33 37 0 0 0
SMALL
GASTEIGER

@<TRIPOS>ATOM
      1 C          63.1103   89.7145   11.7001 C.3     1  UNL1        0.0749
      2 C          63.8523   91.0158   11.6220 C.3     1  UNL1        0.0444
      3 C          64.7102   91.4599   12.7695 C.ar    1  UNL1       -0.0103
      4 C          64.8262   90.6028   13.9950 C.ar    1  UNL1       -0.0091
      5 C          65.6842   91.0470   15.1424 C.ar    1  UNL1       -0.0032
      6 C          66.4261   92.3483   15.0644 C.ar    1  UNL1        0.0010
      7 C          66.3102   93.2054   13.8389 C.ar    1  UNL1        0.0140
      8 C          65.4522   92.7613   12.6914 C.ar    1  UNL1        0.0403
      9 C          64.0842   89.3015   14.0730 C.3     1  UNL1        0.0954
     10 N          63.2263   88.8574   12.9256 N.3     1  UNL1       -0.2934
     11 H          62.2820   88.7390   13.2925 H       1  UNL1        0.1236
     12 N          65.3363   93.6184   11.4659 N.pl3   1  UNL1       -0.3342
     13 H          64.5769   94.2373   11.3681 H       1  UNL1        0.1468
     14 C          66.3773   93.5327   10.3895 C.3     1  UNL1        0.0718
     15 C          66.5251   94.6489    9.3984 C.3     1  UNL1        0.0366
     16 C          67.5662   94.5632    8.3219 C.3     1  UNL1        0.0703
     17 N          68.4595   93.3612    8.2365 N.3     1  UNL1       -0.2974
     18 C          68.3117   92.2449    9.2275 C.3     1  UNL1        0.0703
     19 C          67.2706   92.3307   10.3040 C.3     1  UNL1        0.0366
     20 H          69.4181   93.7005    8.3159 H       1  UNL1        0.1232
     21 C          62.2524   89.2704   10.5526 C.3     1  UNL1        0.0886
     22 C          60.1233   87.9428   11.2270 C.3     1  UNL1        0.0899
     23 N          61.5013   87.9746   10.6353 N.3     1  UNL1       -0.2667
     24 C          62.1283   86.7105   10.1263 C.3     1  UNL1        0.0978
     25 C          62.2403   86.4706    8.6499 C.3     1  UNL1        0.0224
     26 C          62.8672   85.2065    8.1409 C.3     1  UNL1        0.0065
     27 C          63.3822   84.1824    9.1083 C.3     1  UNL1        0.0277
     28 C          63.2702   84.4223   10.5848 C.ar    1  UNL1       -0.0073
     29 C          63.7851   83.3981   11.5522 C.ar    1  UNL1       -0.0015
     30 C          63.6731   83.6381   13.0286 C.ar    1  UNL1        0.0203
     31 C          63.0461   84.9021   13.5376 C.ar    1  UNL1        0.0985
     32 N          62.5312   85.9263   12.5702 N.ar    1  UNL1       -0.2471
     33 C          62.6432   85.6863   11.0938 C.ar    1  UNL1        0.0695
@<TRIPOS>BOND
     1    22    23    1
     2    23    21    1
     3     1    21    1
     4     1     2    1
     5     2     3    1
     6     3     4   ar
     7     4     5   ar
     8     5     6   ar
     9     6     7   ar
    10     7     8   ar
    11     8    12    1
    12    12    14    1
    13    14    15    1
    14    15    16    1
    15    16    17    1
    16    17    18    1
    17    18    19    1
    18     4     9    1
    19     9    10    1
    20    24    23    1
    21    24    25    1
    22    25    26    1
    23    26    27    1
    24    27    28    1
    25    28    29   ar
    26    29    30   ar
    27    30    31   ar
    28    31    32   ar
    29    32    33   ar
    30    10     1    1
    31    33    24    1
    32     8     3   ar
    33    19    14    1
    34    33    28   ar
    35    12    13    1
    36    17    20    1
    37    10    11    1
@<TRIPOS>MOLECULE
*****
 33 37 0 0 0
SMALL
GASTEIGER

@<TRIPOS>ATOM
      1 C          63.8724   91.5453   11.0326 C.3     1  UNL1        0.0749
      2 C          63.7767   91.2948   12.5084 C.3     1  UNL1        0.0444
      3 C          64.8658   91.7728   13.4224 C.ar    1  UNL1       -0.0103
      4 C          66.0505   92.5013   12.8605 C.ar    1  UNL1       -0.0091
      5 C          67.1397   92.9794   13.7745 C.ar    1  UNL1       -0.0032
      6 C          67.0440   92.7288   15.2503 C.ar    1  UNL1        0.0010
      7 C          65.8593   92.0003   15.8122 C.ar    1  UNL1        0.0140
      8 C          64.7702   91.5223   14.8983 C.ar    1  UNL1        0.0403
      9 C          66.1462   92.7518   11.3847 C.3     1  UNL1        0.0954
     10 N          65.0571   92.2738   10.4707 N.3     1  UNL1       -0.2934
     11 H          65.4940   91.6478    9.7943 H       1  UNL1        0.1236
     12 N          63.5855   90.7938   15.4601 N.pl3   1  UNL1       -0.3342
     13 H          62.7755   91.2927   15.7133 H       1  UNL1        0.1468
     14 C          63.6350   89.3050   15.6363 C.3     1  UNL1        0.0718
     15 C          64.3276   88.4515   14.6155 C.3     1  UNL1        0.0366
     16 C          64.3770   86.9627   14.7918 C.3     1  UNL1        0.0703
     17 N          63.7339   86.3274   15.9887 N.3     1  UNL1       -0.2974
     18 C          63.0413   87.1808   17.0095 C.3     1  UNL1        0.0703
     19 C          62.9919   88.6696   16.8333 C.3     1  UNL1        0.0366
     20 H          64.4671   85.8166   16.4806 H       1  UNL1        0.1232
     21 C          62.7832   91.0672   10.1186 C.3     1  UNL1        0.0886
     22 C          60.5056   90.9356   11.3616 C.3     1  UNL1        0.0899
     23 N          61.6472   90.2551   10.6661 N.3     1  UNL1       -0.2667
     24 C          61.6527   88.7624   10.5182 C.3     1  UNL1        0.0978
     25 C          62.4660   87.9190   11.4548 C.3     1  UNL1        0.0224
     26 C          62.4715   86.4263   11.3069 C.3     1  UNL1        0.0065
     27 C          61.6638   85.7771   10.2224 C.3     1  UNL1        0.0277
     28 C          60.8505   86.6205    9.2858 C.ar    1  UNL1       -0.0073
     29 C          60.0428   85.9713    8.2014 C.ar    1  UNL1       -0.0015
     30 C          59.2295   86.8147    7.2649 C.ar    1  UNL1        0.0203
     31 C          59.2240   88.3074    7.4128 C.ar    1  UNL1        0.0985
     32 N          60.0317   88.9567    8.4972 N.ar    1  UNL1       -0.2471
     33 C          60.8450   88.1132    9.4337 C.ar    1  UNL1        0.0695
@<TRIPOS>BOND
     1    22    23    1
     2    23    21    1
     3     1    21    1
     4     1     2    1
     5     2     3    1
     6     3     4   ar
     7     4     5   ar
     8     5     6   ar
     9     6     7   ar
    10     7     8   ar
    11     8    12    1
    12    12    14    1
    13    14    15    1
    14    15    16    1
    15    16    17    1
    16    17    18    1
    17    18    19    1
    18     4     9    1
    19     9    10    1
    20    24    23    1
    21    24    25    1
    22    25    26    1
    23    26    27    1
    24    27    28    1
    25    28    29   ar
    26    29    30   ar
    27    30    31   ar
    28    31    32   ar
    29    32    33   ar
    30    10     1    1
    31    33    24    1
    32     8     3   ar
    33    19    14    1
    34    33    28   ar
    35    12    13    1
    36    17    20    1
    37    10    11    1
@<TRIPOS>MOLECULE
*****
 33 37 0 0 0
SMALL
GASTEIGER

@<TRIPOS>ATOM
      1 C          63.1484   90.9571   11.5328 C.3     1  UNL1        0.0749
      2 C          64.5152   91.5507   11.3610 C.3     1  UNL1        0.0444
      3 C          65.4204   91.7048   12.5471 C.ar    1  UNL1       -0.0103
      4 C          64.9588   91.2653   13.9050 C.ar    1  UNL1       -0.0091
      5 C          65.8641   91.4194   15.0911 C.ar    1  UNL1       -0.0032
      6 C          67.2309   92.0129   14.9193 C.ar    1  UNL1        0.0010
      7 C          67.6925   92.4524   13.5614 C.ar    1  UNL1        0.0140
      8 C          66.7873   92.2983   12.3753 C.ar    1  UNL1        0.0403
      9 C          63.5920   90.6717   14.0767 C.3     1  UNL1        0.0954
     10 N          62.6868   90.5177   12.8907 N.3     1  UNL1       -0.2934
     11 H          61.8380   91.0440   13.0977 H       1  UNL1        0.1236
     12 N          67.2489   92.7378   11.0175 N.pl3   1  UNL1       -0.3342
     13 H          67.7764   92.1258   10.4550 H       1  UNL1        0.1468
     14 C          66.9067   94.1097   10.5167 C.3     1  UNL1        0.0718
     15 C          66.1992   95.0810   11.4144 C.3     1  UNL1        0.0366
     16 C          65.8571   96.4530   10.9135 C.3     1  UNL1        0.0703
     17 N          66.2224   96.8535    9.5150 N.3     1  UNL1       -0.2974
     18 C          66.9299   95.8821    8.6172 C.3     1  UNL1        0.0703
     19 C          67.2720   94.5103    9.1180 C.3     1  UNL1        0.0366
     20 H          66.8224   97.6748    9.5911 H       1  UNL1        0.1232
     21 C          62.2431   90.8030   10.3467 C.3     1  UNL1        0.0886
     22 C          59.8274   90.6073   11.2825 C.3     1  UNL1        0.0899
     23 N          60.9587   90.0395   10.4777 N.3     1  UNL1       -0.2667
     24 C          60.8056   88.7081    9.8039 C.3     1  UNL1        0.0978
     25 C          60.0026   88.5941    8.5421 C.3     1  UNL1        0.0224
     26 C          59.8494   87.2627    7.8683 C.3     1  UNL1        0.0065
     27 C          60.4993   86.0454    8.4562 C.3     1  UNL1        0.0277
     28 C          61.3023   86.1594    9.7181 C.ar    1  UNL1       -0.0073
     29 C          61.9521   84.9420   10.3061 C.ar    1  UNL1       -0.0015
     30 C          62.7551   85.0561   11.5679 C.ar    1  UNL1        0.0203
     31 C          62.9083   86.3874   12.2417 C.ar    1  UNL1        0.0985
     32 N          62.2585   87.6048   11.6537 N.ar    1  UNL1       -0.2471
     33 C          61.4555   87.4907   10.3919 C.ar    1  UNL1        0.0695
@<TRIPOS>BOND
     1    22    23    1
     2    23    21    1
     3     1    21    1
     4     1     2    1
     5     2     3    1
     6     3     4   ar
     7     4     5   ar
     8     5     6   ar
     9     6     7   ar
    10     7     8   ar
    11     8    12    1
    12    12    14    1
    13    14    15    1
    14    15    16    1
    15    16    17    1
    16    17    18    1
    17    18    19    1
    18     4     9    1
    19     9    10    1
    20    24    23    1
    21    24    25    1
    22    25    26    1
    23    26    27    1
    24    27    28    1
    25    28    29   ar
    26    29    30   ar
    27    30    31   ar
    28    31    32   ar
    29    32    33   ar
    30    10     1    1
    31    33    24    1
    32     8     3   ar
    33    19    14    1
    34    33    28   ar
    35    12    13    1
    36    17    20    1
    37    10    11    1
@<TRIPOS>MOLECULE
*****
 33 37 0 0 0
SMALL
GASTEIGER

@<TRIPOS>ATOM
      1 C          63.0148   90.7470   11.7370 C.3     1  UNL1        0.0749
      2 C          63.9994   91.8773   11.7909 C.3     1  UNL1        0.0444
      3 C          64.9955   91.9515   12.9099 C.ar    1  UNL1       -0.0103
      4 C          65.0071   90.8953   13.9750 C.ar    1  UNL1       -0.0091
      5 C          66.0033   90.9695   15.0940 C.ar    1  UNL1       -0.0032
      6 C          66.9879   92.0998   15.1478 C.ar    1  UNL1        0.0010
      7 C          66.9764   93.1560   14.0827 C.ar    1  UNL1        0.0140
      8 C          65.9802   93.0818   12.9638 C.ar    1  UNL1        0.0403
      9 C          64.0225   89.7650   13.9211 C.3     1  UNL1        0.0954
     10 N          63.0263   89.6909   12.8021 N.3     1  UNL1       -0.2934
     11 H          62.1009   89.6951   13.2310 H       1  UNL1        0.1236
     12 N          65.9686   94.1379   11.8987 N.pl3   1  UNL1       -0.3342
     13 H          65.4597   94.9695   12.0356 H       1  UNL1        0.1468
     14 C          66.7324   93.9271   10.6251 C.3     1  UNL1        0.0718
     15 C          67.5102   92.6614   10.4178 C.3     1  UNL1        0.0366
     16 C          68.2741   92.4506    9.1440 C.3     1  UNL1        0.0703
     17 N          68.2600   93.5054    8.0778 N.3     1  UNL1       -0.2974
     18 C          67.4822   94.7711    8.2851 C.3     1  UNL1        0.0703
     19 C          66.7184   94.9820    9.5587 C.3     1  UNL1        0.0366
     20 H          67.8895   93.0669    7.2346 H       1  UNL1        0.1232
     21 C          62.0185   90.6728   10.6180 C.3     1  UNL1        0.0886
     22 C          59.7309   90.1149   11.7160 C.3     1  UNL1        0.0899
     23 N          60.8193   89.7801   10.7395 N.3     1  UNL1       -0.2667
     24 C          60.7083   88.5526    9.8846 C.3     1  UNL1        0.0978
     25 C          59.9444   88.6036    8.5947 C.3     1  UNL1        0.0224
     26 C          59.8334   87.3761    7.7397 C.3     1  UNL1        0.0065
     27 C          60.4863   86.0977    8.1746 C.3     1  UNL1        0.0277
     28 C          61.2502   86.0466    9.4646 C.ar    1  UNL1       -0.0073
     29 C          61.9031   84.7681    9.8995 C.ar    1  UNL1       -0.0015
     30 C          62.6670   84.7172   11.1894 C.ar    1  UNL1        0.0203
     31 C          62.7779   85.9446   12.0444 C.ar    1  UNL1        0.0985
     32 N          62.1251   87.2231   11.6094 N.ar    1  UNL1       -0.2471
     33 C          61.3612   87.2741   10.3196 C.ar    1  UNL1        0.0695
@<TRIPOS>BOND
     1    22    23    1
     2    23    21    1
     3     1    21    1
     4     1     2    1
     5     2     3    1
     6     3     4   ar
     7     4     5   ar
     8     5     6   ar
     9     6     7   ar
    10     7     8   ar
    11     8    12    1
    12    12    14    1
    13    14    15    1
    14    15    16    1
    15    16    17    1
    16    17    18    1
    17    18    19    1
    18     4     9    1
    19     9    10    1
    20    24    23    1
    21    24    25    1
    22    25    26    1
    23    26    27    1
    24    27    28    1
    25    28    29   ar
    26    29    30   ar
    27    30    31   ar
    28    31    32   ar
    29    32    33   ar
    30    10     1    1
    31    33    24    1
    32     8     3   ar
    33    19    14    1
    34    33    28   ar
    35    12    13    1
    36    17    20    1
    37    10    11    1
@<TRIPOS>MOLECULE
*****
 33 37 0 0 0
SMALL
GASTEIGER

@<TRIPOS>ATOM
      1 C          63.1440   90.9971   12.1787 C.3     1  UNL1        0.0749
      2 C          64.4917   91.5414   11.8078 C.3     1  UNL1        0.0444
      3 C          65.5469   91.7124   12.8600 C.ar    1  UNL1       -0.0103
      4 C          65.2545   91.3392   14.2831 C.ar    1  UNL1       -0.0091
      5 C          66.3098   91.5103   15.3353 C.ar    1  UNL1       -0.0032
      6 C          67.6574   92.0546   14.9644 C.ar    1  UNL1        0.0010
      7 C          67.9498   92.4278   13.5413 C.ar    1  UNL1        0.0140
      8 C          66.8946   92.2568   12.4891 C.ar    1  UNL1        0.0403
      9 C          63.9069   90.7949   14.6540 C.3     1  UNL1        0.0954
     10 N          62.8516   90.6239   13.6018 N.3     1  UNL1       -0.2934
     11 H          62.0506   91.1835   13.8943 H       1  UNL1        0.1236
     12 N          67.1870   92.6300   11.0660 N.pl3   1  UNL1       -0.3342
     13 H          67.5261   91.9511   10.4388 H       1  UNL1        0.1468
     14 C          66.9627   94.0375   10.5985 C.3     1  UNL1        0.0718
     15 C          66.1805   94.9944   11.4485 C.3     1  UNL1        0.0366
     16 C          65.9563   96.4020   10.9809 C.3     1  UNL1        0.0703
     17 N          66.5141   96.8525    9.6635 N.3     1  UNL1       -0.2974
     18 C          67.2963   95.8956    8.8135 C.3     1  UNL1        0.0703
     19 C          67.5206   94.4881    9.2810 C.3     1  UNL1        0.0366
     20 H          67.1286   97.6429    9.8587 H       1  UNL1        0.1232
     21 C          62.0887   90.8260   11.1264 C.3     1  UNL1        0.0886
     22 C          59.7099   90.1240   11.9001 C.3     1  UNL1        0.0899
     23 N          61.0332   89.7725   11.2872 N.3     1  UNL1       -0.2667
     24 C          61.3007   88.3675   10.8351 C.3     1  UNL1        0.0978
     25 C          62.1947   87.4763   11.6454 C.3     1  UNL1        0.0224
     26 C          62.4623   86.0713   11.1933 C.3     1  UNL1        0.0065
     27 C          61.8359   85.5575    9.9310 C.3     1  UNL1        0.0277
     28 C          60.9419   86.4487    9.1206 C.ar    1  UNL1       -0.0073
     29 C          60.3155   85.9348    7.8583 C.ar    1  UNL1       -0.0015
     30 C          59.4215   86.8260    7.0480 C.ar    1  UNL1        0.0203
     31 C          59.1539   88.2310    7.5001 C.ar    1  UNL1        0.0985
     32 N          59.7803   88.7448    8.7625 N.ar    1  UNL1       -0.2471
     33 C          60.6743   87.8537    9.5727 C.ar    1  UNL1        0.0695
@<TRIPOS>BOND
     1    22    23    1
     2    23    21    1
     3     1    21    1
     4     1     2    1
     5     2     3    1
     6     3     4   ar
     7     4     5   ar
     8     5     6   ar
     9     6     7   ar
    10     7     8   ar
    11     8    12    1
    12    12    14    1
    13    14    15    1
    14    15    16    1
    15    16    17    1
    16    17    18    1
    17    18    19    1
    18     4     9    1
    19     9    10    1
    20    24    23    1
    21    24    25    1
    22    25    26    1
    23    26    27    1
    24    27    28    1
    25    28    29   ar
    26    29    30   ar
    27    30    31   ar
    28    31    32   ar
    29    32    33   ar
    30    10     1    1
    31    33    24    1
    32     8     3   ar
    33    19    14    1
    34    33    28   ar
    35    12    13    1
    36    17    20    1
    37    10    11    1
@<TRIPOS>MOLECULE
*****
 33 37 0 0 0
SMALL
GASTEIGER

@<TRIPOS>ATOM
      1 C          62.0461   90.9019   10.9921 C.3     1  UNL1        0.0749
      2 C          62.4787   90.6341   12.4031 C.3     1  UNL1        0.0444
      3 C          63.8461   91.0485   12.8597 C.ar    1  UNL1       -0.0103
      4 C          64.7808   91.7306   11.9053 C.ar    1  UNL1       -0.0091
      5 C          66.1483   92.1450   12.3620 C.ar    1  UNL1       -0.0032
      6 C          66.5809   91.8773   13.7730 C.ar    1  UNL1        0.0010
      7 C          65.6461   91.1952   14.7275 C.ar    1  UNL1        0.0140
      8 C          64.2788   90.7808   14.2709 C.ar    1  UNL1        0.0403
      9 C          64.3482   91.9983   10.4942 C.3     1  UNL1        0.0954
     10 N          62.9809   91.5840   10.0376 N.3     1  UNL1       -0.2934
     11 H          63.1132   90.9488    9.2506 H       1  UNL1        0.1236
     12 N          63.3440   90.0987   15.2253 N.pl3   1  UNL1       -0.3342
     13 H          62.5912   90.5972   15.6179 H       1  UNL1        0.1468
     14 C          63.5562   88.6572   15.5816 C.3     1  UNL1        0.0718
     15 C          62.9366   88.0931   16.8257 C.3     1  UNL1        0.0366
     16 C          63.1488   86.6515   17.1820 C.3     1  UNL1        0.0703
     17 N          63.9805   85.7741   16.2941 N.3     1  UNL1       -0.2974
     18 C          64.6001   86.3382   15.0500 C.3     1  UNL1        0.0703
     19 C          64.3879   87.7797   14.6937 C.3     1  UNL1        0.0366
     20 H          63.3831   85.0010   16.0011 H       1  UNL1        0.1232
     21 C          60.6787   90.4875   10.5354 C.3     1  UNL1        0.0886
     22 C          59.3851   88.8777   12.1119 C.3     1  UNL1        0.0899
     23 N          60.1660   89.1141   10.8532 N.3     1  UNL1       -0.2667
     24 C          60.4342   87.9771    9.9123 C.3     1  UNL1        0.0978
     25 C          59.8065   87.9670    8.5500 C.3     1  UNL1        0.0224
     26 C          60.0747   86.8300    7.6091 C.3     1  UNL1        0.0065
     27 C          60.9706   85.7031    8.0304 C.3     1  UNL1        0.0277
     28 C          61.5983   85.7133    9.3928 C.ar    1  UNL1       -0.0073
     29 C          62.4942   84.5864    9.8141 C.ar    1  UNL1       -0.0015
     30 C          63.1219   84.5966   11.1764 C.ar    1  UNL1        0.0203
     31 C          62.8537   85.7336   12.1173 C.ar    1  UNL1        0.0985
     32 N          61.9578   86.8604   11.6960 N.ar    1  UNL1       -0.2471
     33 C          61.3301   86.8503   10.3337 C.ar    1  UNL1        0.0695
@<TRIPOS>BOND
     1    22    23    1
     2    23    21    1
     3     1    21    1
     4     1     2    1
     5     2     3    1
     6     3     4   ar
     7     4     5   ar
     8     5     6   ar
     9     6     7   ar
    10     7     8   ar
    11     8    12    1
    12    12    14    1
    13    14    15    1
    14    15    16    1
    15    16    17    1
    16    17    18    1
    17    18    19    1
    18     4     9    1
    19     9    10    1
    20    24    23    1
    21    24    25    1
    22    25    26    1
    23    26    27    1
    24    27    28    1
    25    28    29   ar
    26    29    30   ar
    27    30    31   ar
    28    31    32   ar
    29    32    33   ar
    30    10     1    1
    31    33    24    1
    32     8     3   ar
    33    19    14    1
    34    33    28   ar
    35    12    13    1
    36    17    20    1
    37    10    11    1
@<TRIPOS>MOLECULE
*****
 33 37 0 0 0
SMALL
GASTEIGER

@<TRIPOS>ATOM
      1 C          63.4818   90.8430   13.7700 C.3     1  UNL1        0.0749
      2 C          64.7874   91.2472   13.1520 C.3     1  UNL1        0.0444
      3 C          65.8747   91.8265   14.0076 C.ar    1  UNL1       -0.0103
      4 C          65.6563   92.0016   15.4813 C.ar    1  UNL1       -0.0091
      5 C          66.7437   92.5810   16.3369 C.ar    1  UNL1       -0.0032
      6 C          68.0493   92.9851   15.7189 C.ar    1  UNL1        0.0010
      7 C          68.2677   92.8099   14.2453 C.ar    1  UNL1        0.0140
      8 C          67.1804   92.2306   13.3896 C.ar    1  UNL1        0.0403
      9 C          64.3507   91.5975   16.0993 C.3     1  UNL1        0.0954
     10 N          63.2634   91.0182   15.2436 N.3     1  UNL1       -0.2934
     11 H          62.4500   91.6243   15.3508 H       1  UNL1        0.1236
     12 N          67.3987   92.0554   11.9160 N.pl3   1  UNL1       -0.3342
     13 H          67.7610   91.2082   11.5693 H       1  UNL1        0.1468
     14 C          67.0651   93.1711   10.9705 C.3     1  UNL1        0.0718
     15 C          66.0658   94.2170   11.3673 C.3     1  UNL1        0.0366
     16 C          65.7322   95.3327   10.4218 C.3     1  UNL1        0.0703
     17 N          66.3980   95.4025    9.0795 N.3     1  UNL1       -0.2974
     18 C          67.3974   94.3567    8.6827 C.3     1  UNL1        0.0703
     19 C          67.7310   93.2410    9.6281 C.3     1  UNL1        0.0366
     20 H          66.8789   96.3010    9.0358 H       1  UNL1        0.1232
     21 C          62.3944   90.2637   12.9143 C.3     1  UNL1        0.0886
     22 C          63.3470   90.9115   10.5856 C.3     1  UNL1        0.0899
     23 N          62.6722   89.9158   11.4820 N.3     1  UNL1       -0.2667
     24 C          62.2753   88.5723   10.9459 C.3     1  UNL1        0.0978
     25 C          61.4961   88.4751    9.6678 C.3     1  UNL1        0.0224
     26 C          61.0992   87.1316    9.1317 C.3     1  UNL1        0.0065
     27 C          61.4815   85.8853    9.8736 C.3     1  UNL1        0.0277
     28 C          62.2607   85.9824   11.1518 C.ar    1  UNL1       -0.0073
     29 C          62.6430   84.7361   11.8937 C.ar    1  UNL1       -0.0015
     30 C          63.4221   84.8333   13.1717 C.ar    1  UNL1        0.0203
     31 C          63.8190   86.1768   13.7078 C.ar    1  UNL1        0.0985
     32 N          63.4368   87.4232   12.9659 N.ar    1  UNL1       -0.2471
     33 C          62.6576   87.3260   11.6879 C.ar    1  UNL1        0.0695
@<TRIPOS>BOND
     1    22    23    1
     2    23    21    1
     3     1    21    1
     4     1     2    1
     5     2     3    1
     6     3     4   ar
     7     4     5   ar
     8     5     6   ar
     9     6     7   ar
    10     7     8   ar
    11     8    12    1
    12    12    14    1
    13    14    15    1
    14    15    16    1
    15    16    17    1
    16    17    18    1
    17    18    19    1
    18     4     9    1
    19     9    10    1
    20    24    23    1
    21    24    25    1
    22    25    26    1
    23    26    27    1
    24    27    28    1
    25    28    29   ar
    26    29    30   ar
    27    30    31   ar
    28    31    32   ar
    29    32    33   ar
    30    10     1    1
    31    33    24    1
    32     8     3   ar
    33    19    14    1
    34    33    28   ar
    35    12    13    1
    36    17    20    1
    37    10    11    1
@<TRIPOS>MOLECULE
*****
 33 37 0 0 0
SMALL
GASTEIGER

@<TRIPOS>ATOM
      1 C          63.7533   90.8446   14.0874 C.3     1  UNL1        0.0749
      2 C          65.0758   91.0919   13.4244 C.3     1  UNL1        0.0444
      3 C          66.1828   91.7599   14.1849 C.ar    1  UNL1       -0.0103
      4 C          65.9672   92.1805   15.6085 C.ar    1  UNL1       -0.0091
      5 C          67.0742   92.8486   16.3690 C.ar    1  UNL1       -0.0032
      6 C          68.3967   93.0959   15.7059 C.ar    1  UNL1        0.0010
      7 C          68.6123   92.6753   14.2823 C.ar    1  UNL1        0.0140
      8 C          67.5054   92.0073   13.5218 C.ar    1  UNL1        0.0403
      9 C          64.6447   91.9332   16.2716 C.3     1  UNL1        0.0954
     10 N          63.5377   91.2652   15.5110 N.3     1  UNL1       -0.2934
     11 H          62.7488   91.9117   15.5108 H       1  UNL1        0.1236
     12 N          67.7210   91.5867   12.0982 N.pl3   1  UNL1       -0.3342
     13 H          67.9607   90.6545   11.8913 H       1  UNL1        0.1468
     14 C          67.5713   92.5863   10.9900 C.3     1  UNL1        0.0718
     15 C          68.4081   92.4635    9.7511 C.3     1  UNL1        0.0366
     16 C          68.2585   93.4632    8.6428 C.3     1  UNL1        0.0703
     17 N          67.2720   94.5856    8.7734 N.3     1  UNL1       -0.2974
     18 C          66.4352   94.7084   10.0122 C.3     1  UNL1        0.0703
     19 C          66.5848   93.7088   11.1205 C.3     1  UNL1        0.0366
     20 H          66.6258   94.5024    7.9886 H       1  UNL1        0.1232
     21 C          62.6463   90.1765   13.3269 C.3     1  UNL1        0.0886
     22 C          63.4697   90.6703   10.9127 C.3     1  UNL1        0.0899
     23 N          62.8722   89.7266   11.9140 N.3     1  UNL1       -0.2667
     24 C          62.5007   88.3329   11.5022 C.3     1  UNL1        0.0978
     25 C          63.0698   87.1564   12.2385 C.3     1  UNL1        0.0224
     26 C          62.6983   85.7627   11.8267 C.3     1  UNL1        0.0065
     27 C          61.7577   85.5454   10.6786 C.3     1  UNL1        0.0277
     28 C          61.1886   86.7219    9.9423 C.ar    1  UNL1       -0.0073
     29 C          60.2480   86.5046    8.7943 C.ar    1  UNL1       -0.0015
     30 C          59.6789   87.6810    8.0580 C.ar    1  UNL1        0.0203
     31 C          60.0504   89.0748    8.4698 C.ar    1  UNL1        0.0985
     32 N          60.9910   89.2920    9.6178 N.ar    1  UNL1       -0.2471
     33 C          61.5601   88.1156   10.3541 C.ar    1  UNL1        0.0695
@<TRIPOS>BOND
     1    22    23    1
     2    23    21    1
     3     1    21    1
     4     1     2    1
     5     2     3    1
     6     3     4   ar
     7     4     5   ar
     8     5     6   ar
     9     6     7   ar
    10     7     8   ar
    11     8    12    1
    12    12    14    1
    13    14    15    1
    14    15    16    1
    15    16    17    1
    16    17    18    1
    17    18    19    1
    18     4     9    1
    19     9    10    1
    20    24    23    1
    21    24    25    1
    22    25    26    1
    23    26    27    1
    24    27    28    1
    25    28    29   ar
    26    29    30   ar
    27    30    31   ar
    28    31    32   ar
    29    32    33   ar
    30    10     1    1
    31    33    24    1
    32     8     3   ar
    33    19    14    1
    34    33    28   ar
    35    12    13    1
    36    17    20    1
    37    10    11    1
@<TRIPOS>MOLECULE
*****
 33 37 0 0 0
SMALL
GASTEIGER

@<TRIPOS>ATOM
      1 C          61.6366   89.1216   11.3243 C.3     1  UNL1        0.0749
      2 C          62.1793   89.4112   12.6923 C.3     1  UNL1        0.0444
      3 C          63.3016   90.3919   12.8617 C.ar    1  UNL1       -0.0103
      4 C          63.8811   91.0830   11.6631 C.ar    1  UNL1       -0.0091
      5 C          65.0034   92.0637   11.8326 C.ar    1  UNL1       -0.0032
      6 C          65.5461   92.3534   13.2006 C.ar    1  UNL1        0.0010
      7 C          64.9666   91.6623   14.3992 C.ar    1  UNL1        0.0140
      8 C          63.8444   90.6816   14.2297 C.ar    1  UNL1        0.0403
      9 C          63.3383   90.7934   10.2951 C.3     1  UNL1        0.0954
     10 N          62.2161   89.8127   10.1257 N.3     1  UNL1       -0.2934
     11 H          62.5554   89.0821    9.5000 H       1  UNL1        0.1236
     12 N          63.2649   89.9905   15.4283 N.pl3   1  UNL1       -0.3342
     13 H          62.6848   90.4868   16.0500 H       1  UNL1        0.1468
     14 C          63.5692   88.5434   15.6797 C.3     1  UNL1        0.0718
     15 C          64.5037   87.8043   14.7685 C.3     1  UNL1        0.0366
     16 C          64.8080   86.3571   15.0200 C.3     1  UNL1        0.0703
     17 N          64.1778   85.6492   16.1826 N.3     1  UNL1       -0.2974
     18 C          63.2433   86.3884   17.0938 C.3     1  UNL1        0.0703
     19 C          62.9390   87.8355   16.8424 C.3     1  UNL1        0.0366
     20 H          64.9403   85.3000   16.7632 H       1  UNL1        0.1232
     21 C          60.5142   88.1409   11.1548 C.3     1  UNL1        0.0886
     22 C          59.2488   87.5731    8.9578 C.3     1  UNL1        0.0899
     23 N          60.4009   87.3420    9.8903 N.3     1  UNL1       -0.2667
     24 C          61.4395   86.3119    9.5583 C.3     1  UNL1        0.0978
     25 C          61.8547   86.0979    8.1329 C.3     1  UNL1        0.0224
     26 C          62.8934   85.0679    7.8009 C.3     1  UNL1        0.0065
     27 C          63.5167   84.2518    8.8942 C.3     1  UNL1        0.0277
     28 C          63.1015   84.4658   10.3197 C.ar    1  UNL1       -0.0073
     29 C          63.7248   83.6497   11.4130 C.ar    1  UNL1       -0.0015
     30 C          63.3096   83.8637   12.8384 C.ar    1  UNL1        0.0203
     31 C          62.2710   84.8938   13.1704 C.ar    1  UNL1        0.0985
     32 N          61.6476   85.7098   12.0771 N.ar    1  UNL1       -0.2471
     33 C          62.0629   85.4958   10.6517 C.ar    1  UNL1        0.0695
@<TRIPOS>BOND
     1    22    23    1
     2    23    21    1
     3     1    21    1
     4     1     2    1
     5     2     3    1
     6     3     4   ar
     7     4     5   ar
     8     5     6   ar
     9     6     7   ar
    10     7     8   ar
    11     8    12    1
    12    12    14    1
    13    14    15    1
    14    15    16    1
    15    16    17    1
    16    17    18    1
    17    18    19    1
    18     4     9    1
    19     9    10    1
    20    24    23    1
    21    24    25    1
    22    25    26    1
    23    26    27    1
    24    27    28    1
    25    28    29   ar
    26    29    30   ar
    27    30    31   ar
    28    31    32   ar
    29    32    33   ar
    30    10     1    1
    31    33    24    1
    32     8     3   ar
    33    19    14    1
    34    33    28   ar
    35    12    13    1
    36    17    20    1
    37    10    11    1
