@<TRIPOS>MOLECULE
*****
 6 6 0 0 0
SMALL
GASTEIGER

@<TRIPOS>ATOM
      1 C          61.5734   81.0802   14.1254 C.ar    1  UNL1        0.0945
      2 C          62.4779   80.5960   13.0311 C.ar    1  UNL1        0.1190
      3 N          63.7407   81.4039   13.0819 N.ar    1  UNL1       -0.2225
      4 C          63.6167   82.3875   14.2077 C.ar    1  UNL1        0.1751
      5 N          62.2773   82.1874   14.8525 N.ar    1  UNL1       -0.3337
      6 H          61.9224   82.6939   15.6186 H       1  UNL1        0.1675
@<TRIPOS>BOND
     1     1     2   ar
     2     2     3   ar
     3     3     4   ar
     4     4     5   ar
     5     5     1   ar
     6     5     6    1
@<TRIPOS>MOLECULE
*****
 6 6 0 0 0
SMALL
GASTEIGER

@<TRIPOS>ATOM
      1 C          66.3452   92.9955   10.2806 C.ar    1  UNL1        0.0945
      2 C          67.7318   92.4243   10.2493 C.ar    1  UNL1        0.1190
      3 N          68.6224   93.4074    9.5490 N.ar    1  UNL1       -0.2225
      4 C          67.7862   94.5861    9.1475 C.ar    1  UNL1        0.1751
      5 N          66.3788   94.3315    9.5997 N.ar    1  UNL1       -0.3337
      6 H          65.6118   94.9354    9.4719 H       1  UNL1        0.1675
@<TRIPOS>BOND
     1     1     2   ar
     2     2     3   ar
     3     3     4   ar
     4     4     5   ar
     5     5     1   ar
     6     5     6    1
@<TRIPOS>MOLECULE
*****
 6 6 0 0 0
SMALL
GASTEIGER

@<TRIPOS>ATOM
      1 C          67.5838   91.9292   13.9132 C.ar    1  UNL1        0.0945
      2 C          66.5786   92.2774   14.9707 C.ar    1  UNL1        0.1190
      3 N          67.3095   92.9228   16.1105 N.ar    1  UNL1       -0.2225
      4 C          68.7665   92.9735   15.7575 C.ar    1  UNL1        0.1751
      5 N          68.9360   92.3594   14.3995 N.ar    1  UNL1       -0.3337
      6 H          69.7856   92.2567   13.9128 H       1  UNL1        0.1675
@<TRIPOS>BOND
     1     1     2   ar
     2     2     3   ar
     3     3     4   ar
     4     4     5   ar
     5     5     1   ar
     6     5     6    1
@<TRIPOS>MOLECULE
*****
 6 6 0 0 0
SMALL
GASTEIGER

@<TRIPOS>ATOM
      1 C          63.1148   82.3289   13.9860 C.ar    1  UNL1        0.0945
      2 C          62.9769   83.5314   13.0999 C.ar    1  UNL1        0.1190
      3 N          62.5459   84.6882   13.9521 N.ar    1  UNL1       -0.2225
      4 C          62.4174   84.2006   15.3648 C.ar    1  UNL1        0.1751
      5 N          62.7691   82.7426   15.3858 N.ar    1  UNL1       -0.3337
      6 H          62.7723   82.1595   16.1790 H       1  UNL1        0.1675
@<TRIPOS>BOND
     1     1     2   ar
     2     2     3   ar
     3     3     4   ar
     4     4     5   ar
     5     5     1   ar
     6     5     6    1
@<TRIPOS>MOLECULE
*****
 6 6 0 0 0
SMALL
GASTEIGER

@<TRIPOS>ATOM
      1 C          64.0124   83.4503   14.9099 C.ar    1  UNL1        0.0945
      2 C          62.5423   83.5963   15.1695 C.ar    1  UNL1        0.1190
      3 N          62.3195   84.9181   15.8428 N.ar    1  UNL1       -0.2225
      4 C          63.6520   85.5890   15.9992 C.ar    1  UNL1        0.1751
      5 N          64.6982   84.6818   15.4226 N.ar    1  UNL1       -0.3337
      6 H          65.6652   84.8629   15.3870 H       1  UNL1        0.1675
@<TRIPOS>BOND
     1     1     2   ar
     2     2     3   ar
     3     3     4   ar
     4     4     5   ar
     5     5     1   ar
     6     5     6    1
@<TRIPOS>MOLECULE
*****
 6 6 0 0 0
SMALL
GASTEIGER

@<TRIPOS>ATOM
      1 C          63.1818   83.1101   14.3412 C.ar    1  UNL1        0.0945
      2 C          63.1121   82.8811   12.8604 C.ar    1  UNL1        0.1190
      3 N          62.2304   81.6924   12.6161 N.ar    1  UNL1       -0.2225
      4 C          61.7552   81.1868   13.9459 C.ar    1  UNL1        0.1751
      5 N          62.3432   82.0629   15.0121 N.ar    1  UNL1       -0.3337
      6 H          62.2032   81.9675   15.9819 H       1  UNL1        0.1675
@<TRIPOS>BOND
     1     1     2   ar
     2     2     3   ar
     3     3     4   ar
     4     4     5   ar
     5     5     1   ar
     6     5     6    1
@<TRIPOS>MOLECULE
*****
 6 6 0 0 0
SMALL
GASTEIGER

@<TRIPOS>ATOM
      1 C          67.1003   95.1722    8.2882 C.ar    1  UNL1        0.0945
      2 C          67.9268   94.3413    9.2243 C.ar    1  UNL1        0.1190
      3 N          67.2728   94.3742   10.5738 N.ar    1  UNL1       -0.2225
      4 C          66.0420   95.2254   10.4717 C.ar    1  UNL1        0.1751
      5 N          65.9354   95.7186    9.0591 N.ar    1  UNL1       -0.3337
      6 H          65.2254   96.2990    8.7009 H       1  UNL1        0.1675
@<TRIPOS>BOND
     1     1     2   ar
     2     2     3   ar
     3     3     4   ar
     4     4     5   ar
     5     5     1   ar
     6     5     6    1
@<TRIPOS>MOLECULE
*****
 6 6 0 0 0
SMALL
GASTEIGER

@<TRIPOS>ATOM
      1 C          64.6927   84.1134   13.9097 C.ar    1  UNL1        0.0945
      2 C          63.9679   83.3583   14.9841 C.ar    1  UNL1        0.1190
      3 N          63.5600   82.0289   14.4217 N.ar    1  UNL1       -0.2225
      4 C          64.0326   81.9624   12.9997 C.ar    1  UNL1        0.1751
      5 N          64.7327   83.2508   12.6833 N.ar    1  UNL1       -0.3337
      6 H          65.1459   83.4884   11.8219 H       1  UNL1        0.1675
@<TRIPOS>BOND
     1     1     2   ar
     2     2     3   ar
     3     3     4   ar
     4     4     5   ar
     5     5     1   ar
     6     5     6    1
@<TRIPOS>MOLECULE
*****
 6 6 0 0 0
SMALL
GASTEIGER

@<TRIPOS>ATOM
      1 C          60.1284   87.9769   10.4519 C.ar    1  UNL1        0.0945
      2 C          60.3006   89.2953    9.7575 C.ar    1  UNL1        0.1190
      3 N          59.9428   90.3811   10.7286 N.ar    1  UNL1       -0.2225
      4 C          59.5495   89.7337   12.0233 C.ar    1  UNL1        0.1751
      5 N          59.6642   88.2479   11.8523 N.ar    1  UNL1       -0.3337
      6 H          59.4691   87.5697   12.5387 H       1  UNL1        0.1675
@<TRIPOS>BOND
     1     1     2   ar
     2     2     3   ar
     3     3     4   ar
     4     4     5   ar
     5     5     1   ar
     6     5     6    1
