@<TRIPOS>MOLECULE
*****
 30 33 0 0 0
SMALL
GASTEIGER

@<TRIPOS>ATOM
      1 N          72.1651   76.8002   12.9403 N.pl3   1  UNL1       -0.3074
      2 C          72.9105   75.5417   12.6080 C.3     1  UNL1        0.0925
      3 C          72.7524   74.3259   13.4722 C.3     1  UNL1        0.0415
      4 C          71.8488   74.3686   14.6687 C.3     1  UNL1        0.0807
      5 C          71.1033   75.6271   15.0010 C.3     1  UNL1        0.0415
      6 C          71.2615   76.8429   14.1368 C.3     1  UNL1        0.0925
      7 C          72.6396   80.4476   10.3477 C.ar    1  UNL1        0.1058
      8 C          72.0537   80.5758   11.7226 C.ar    1  UNL1        0.0196
      9 C          71.8955   79.3600   12.5867 C.ar    1  UNL1        0.0158
     10 C          72.3233   78.0160   12.0761 C.ar    1  UNL1        0.0479
     11 C          72.9092   77.8879   10.7013 C.ar    1  UNL1        0.0158
     12 C          73.0674   79.1037    9.8371 C.ar    1  UNL1        0.0196
     13 C          72.9560   82.8792    8.6193 C.3     1  UNL1        0.1816
     14 S          72.7978   81.6634    9.4835 S.O2    1  UNL1        0.0105
     15 O          72.1707   82.5061   10.5543 O.2     1  UNL1       -0.1686
     16 O          73.4249   80.8207    8.4128 O.2     1  UNL1       -0.1686
     17 N          71.6906   73.1528   15.5329 N.pl3   1  UNL1       -0.2872
     18 C          71.2967   71.8423   14.9188 C.ar    1  UNL1        0.0516
     19 C          70.3990   71.8166   13.7173 C.ar    1  UNL1        0.0157
     20 C          70.0051   70.5060   13.1032 C.ar    1  UNL1        0.0127
     21 C          70.5089   69.2210   13.6905 C.ar    1  UNL1        0.0578
     22 CL         70.1150   67.9104   13.0763 Cl      1  UNL1       -0.0822
     23 C          71.4066   69.2466   14.8919 C.ar    1  UNL1        0.0127
     24 C          71.8006   70.5573   15.5061 C.ar    1  UNL1        0.0157
     25 C          71.9263   73.2476   17.0112 C.ar    1  UNL1        0.0710
     26 C          70.8110   72.9500   17.9691 C.ar    1  UNL1        0.0180
     27 C          71.0468   73.0448   19.4475 C.ar    1  UNL1        0.0220
     28 C          72.3977   73.4373   19.9678 C.ar    1  UNL1        0.0990
     29 N          73.5130   73.7349   19.0099 N.ar    1  UNL1       -0.2410
     30 C          73.2773   73.6401   17.5316 C.ar    1  UNL1        0.1136
@<TRIPOS>BOND
     1    13    14    1
     2    14    15    2
     3    14    16    2
     4    14     7    1
     5     7     8   ar
     6     8     9   ar
     7     9    10   ar
     8    10     1    1
     9     1     2    1
    10     2     3    1
    11     3     4    1
    12     4    17    1
    13    17    18    1
    14    18    19   ar
    15    19    20   ar
    16    20    21   ar
    17    21    22    1
    18    21    23   ar
    19    23    24   ar
    20    17    25    1
    21    25    26   ar
    22    26    27   ar
    23    27    28   ar
    24    28    29   ar
    25    29    30   ar
    26     4     5    1
    27     5     6    1
    28    10    11   ar
    29    11    12   ar
    30    12     7   ar
    31     6     1    1
    32    24    18   ar
    33    30    25   ar
@<TRIPOS>MOLECULE
*****
 30 33 0 0 0
SMALL
GASTEIGER

@<TRIPOS>ATOM
      1 N          60.8786   87.0604    9.4036 N.pl3   1  UNL1       -0.3074
      2 C          61.6469   85.8634    8.9274 C.3     1  UNL1        0.0925
      3 C          62.2080   84.8888    9.9200 C.3     1  UNL1        0.0415
      4 C          62.0007   85.1112   11.3889 C.3     1  UNL1        0.0807
      5 C          61.2324   86.3082   11.8651 C.3     1  UNL1        0.0415
      6 C          60.6713   87.2828   10.8725 C.3     1  UNL1        0.0925
      7 C          59.1953   89.9842    6.4257 C.ar    1  UNL1        0.1058
      8 C          58.9468   88.5147    6.2567 C.ar    1  UNL1        0.0196
      9 C          59.5079   87.5401    7.2493 C.ar    1  UNL1        0.0158
     10 C          60.3175   88.0350    8.4110 C.ar    1  UNL1        0.0479
     11 C          60.5659   89.5046    8.5801 C.ar    1  UNL1        0.0158
     12 C          60.0048   90.4792    7.5875 C.ar    1  UNL1        0.0196
     13 C          58.0731   91.9335    4.4405 C.3     1  UNL1        0.1816
     14 S          58.6342   90.9589    5.4331 S.O2    1  UNL1        0.0105
     15 O          60.0253   91.3420    5.0230 O.2     1  UNL1       -0.1686
     16 O          57.2432   90.5757    5.8432 O.2     1  UNL1       -0.1686
     17 N          62.5618   84.1366   12.3815 N.pl3   1  UNL1       -0.2872
     18 C          62.6531   82.6804   12.0335 C.ar    1  UNL1        0.0516
     19 C          63.1597   82.2618   10.6851 C.ar    1  UNL1        0.0157
     20 C          63.2510   80.8056   10.3371 C.ar    1  UNL1        0.0127
     21 C          62.8356   79.7679   11.3375 C.ar    1  UNL1        0.0578
     22 CL         62.9269   78.3117   10.9894 Cl      1  UNL1       -0.0822
     23 C          62.3290   80.1865   12.6859 C.ar    1  UNL1        0.0127
     24 C          62.2377   81.6427   13.0339 C.ar    1  UNL1        0.0157
     25 C          63.0316   84.6181   13.7221 C.ar    1  UNL1        0.0710
     26 C          64.3852   85.2497   13.8601 C.ar    1  UNL1        0.0180
     27 C          64.8550   85.7313   15.2008 C.ar    1  UNL1        0.0220
     28 C          63.9713   85.5813   16.4035 C.ar    1  UNL1        0.0990
     29 N          62.6177   84.9498   16.2655 N.ar    1  UNL1       -0.2410
     30 C          62.1479   84.4682   14.9249 C.ar    1  UNL1        0.1136
@<TRIPOS>BOND
     1    13    14    1
     2    14    15    2
     3    14    16    2
     4    14     7    1
     5     7     8   ar
     6     8     9   ar
     7     9    10   ar
     8    10     1    1
     9     1     2    1
    10     2     3    1
    11     3     4    1
    12     4    17    1
    13    17    18    1
    14    18    19   ar
    15    19    20   ar
    16    20    21   ar
    17    21    22    1
    18    21    23   ar
    19    23    24   ar
    20    17    25    1
    21    25    26   ar
    22    26    27   ar
    23    27    28   ar
    24    28    29   ar
    25    29    30   ar
    26     4     5    1
    27     5     6    1
    28    10    11   ar
    29    11    12   ar
    30    12     7   ar
    31     6     1    1
    32    24    18   ar
    33    30    25   ar
