@<TRIPOS>MOLECULE
*****
 24 26 0 0 0
SMALL
GASTEIGER

@<TRIPOS>ATOM
      1 C          60.2983   87.9796    8.8591 C.ar    1  UNL1       -0.0219
      2 C          60.5984   86.7820    9.7109 C.ar    1  UNL1       -0.0011
      3 C          61.5376   86.9051   10.8739 C.ar    1  UNL1        0.0372
      4 C          62.1767   88.2259   11.1852 C.ar    1  UNL1        0.1453
      5 O          63.1361   88.6487   12.2580 O.2     1  UNL1       -0.4535
      6 C          63.4289   90.1077   12.0693 C.ar    1  UNL1        0.1454
      7 C          62.6505   90.5866   10.8799 C.ar    1  UNL1        0.0405
      8 C          61.8766   89.4236   10.3335 C.ar    1  UNL1        0.0373
      9 C          60.9374   89.3004    9.1705 C.ar    1  UNL1       -0.0011
     10 C          64.3402   90.9414   12.9205 C.ar    1  UNL1        0.0378
     11 C          64.4795   90.6440   14.3842 C.ar    1  UNL1        0.0063
     12 C          65.3908   91.4777   15.2354 C.ar    1  UNL1        0.0401
     13 C          66.1627   92.6086   14.6231 C.ar    1  UNL1        0.1724
     14 C          66.0234   92.9060   13.1595 C.ar    1  UNL1        0.1725
     15 C          65.1122   92.0724   12.3082 C.ar    1  UNL1        0.0431
     16 O          67.0740   93.4423   15.4744 O.3     1  UNL1       -0.4684
     17 C          68.5354   93.1136   15.5533 C.3     1  UNL1        0.2526
     18 O          66.7954   94.0370   12.5471 O.3     1  UNL1       -0.4684
     19 C          66.1949   94.8360   11.4286 C.3     1  UNL1        0.2526
     20 C          59.3590   87.8565    7.6961 C.3     1  UNL1        0.0289
     21 C          58.7911   89.0889    7.0570 C.3     1  UNL1        0.0367
     22 C          59.5252   89.7569    5.9323 C.3     1  UNL1        0.1426
     23 C          57.5439   91.2194    5.1042 C.3     1  UNL1        0.1741
     24 O          59.0113   91.0456    5.3620 O.3     1  UNL1       -0.3511
@<TRIPOS>BOND
     1    23    24    1
     2    24    22    1
     3    22    21    1
     4    21    20    1
     5    20     1    1
     6     1     2   ar
     7     2     3   ar
     8     3     4   ar
     9     4     5   ar
    10     5     6   ar
    11     6    10    1
    12    10    11   ar
    13    11    12   ar
    14    12    13   ar
    15    13    16    1
    16    16    17    1
    17    13    14   ar
    18    14    18    1
    19    18    19    1
    20    14    15   ar
    21     6     7   ar
    22     7     8   ar
    23     8     9   ar
    24     9     1   ar
    25     8     4   ar
    26    15    10   ar
@<TRIPOS>MOLECULE
*****
 24 26 0 0 0
SMALL
GASTEIGER

@<TRIPOS>ATOM
      1 C          60.3949   87.8701    9.3893 C.ar    1  UNL1       -0.0219
      2 C          60.7671   86.7378   10.2999 C.ar    1  UNL1       -0.0011
      3 C          61.7767   86.9515   11.3884 C.ar    1  UNL1        0.0372
      4 C          62.4142   88.2976   11.5664 C.ar    1  UNL1        0.1453
      5 O          63.4336   88.8042   12.5432 O.2     1  UNL1       -0.4535
      6 C          63.6914   90.2496   12.2363 C.ar    1  UNL1        0.1454
      7 C          62.8314   90.6364   11.0698 C.ar    1  UNL1        0.0405
      8 C          62.0420   89.4299   10.6558 C.ar    1  UNL1        0.0373
      9 C          61.0324   89.2162    9.5672 C.ar    1  UNL1       -0.0011
     10 C          64.6424   91.1502   12.9675 C.ar    1  UNL1        0.0378
     11 C          65.0684   90.8141   14.3660 C.ar    1  UNL1        0.0063
     12 C          66.0193   91.7146   15.0972 C.ar    1  UNL1        0.0401
     13 C          66.5443   92.9512   14.4300 C.ar    1  UNL1        0.1724
     14 C          66.1184   93.2873   13.0316 C.ar    1  UNL1        0.1725
     15 C          65.1675   92.3868   12.3004 C.ar    1  UNL1        0.0431
     16 O          67.4953   93.8518   15.1613 O.3     1  UNL1       -0.4684
     17 C          68.7358   93.2844   15.7852 C.3     1  UNL1        0.2526
     18 O          66.6435   94.5239   12.3644 O.3     1  UNL1       -0.4684
     19 C          66.3391   94.7829   10.9186 C.3     1  UNL1        0.2526
     20 C          59.3853   87.6564    8.3007 C.3     1  UNL1        0.0289
     21 C          59.3885   86.3786    7.5151 C.3     1  UNL1        0.0367
     22 C          60.6721   85.6322    7.3024 C.3     1  UNL1        0.1426
     23 C          61.9770   84.2444    5.5356 C.3     1  UNL1        0.1741
     24 O          60.7260   84.4965    6.3239 O.3     1  UNL1       -0.3511
@<TRIPOS>BOND
     1    23    24    1
     2    24    22    1
     3    22    21    1
     4    21    20    1
     5    20     1    1
     6     1     2   ar
     7     2     3   ar
     8     3     4   ar
     9     4     5   ar
    10     5     6   ar
    11     6    10    1
    12    10    11   ar
    13    11    12   ar
    14    12    13   ar
    15    13    16    1
    16    16    17    1
    17    13    14   ar
    18    14    18    1
    19    18    19    1
    20    14    15   ar
    21     6     7   ar
    22     7     8   ar
    23     8     9   ar
    24     9     1   ar
    25     8     4   ar
    26    15    10   ar
@<TRIPOS>MOLECULE
*****
 24 26 0 0 0
SMALL
GASTEIGER

@<TRIPOS>ATOM
      1 C          64.1624   90.0304   14.2754 C.ar    1  UNL1       -0.0219
      2 C          63.3951   90.3765   13.0339 C.ar    1  UNL1       -0.0011
      3 C          62.8961   89.2866   12.1322 C.ar    1  UNL1        0.0372
      4 C          63.1644   87.8504   12.4721 C.ar    1  UNL1        0.1453
      5 O          62.8006   86.5704   11.7800 O.2     1  UNL1       -0.4535
      6 C          63.3431   85.4330   12.5937 C.ar    1  UNL1        0.1454
      7 C          64.0422   86.0102   13.7888 C.ar    1  UNL1        0.0405
      8 C          63.9317   87.5043   13.7135 C.ar    1  UNL1        0.0373
      9 C          64.4308   88.5942   14.6152 C.ar    1  UNL1       -0.0011
     10 C          63.2099   83.9745   12.2693 C.ar    1  UNL1        0.0378
     11 C          63.6654   83.4580   10.9368 C.ar    1  UNL1        0.0063
     12 C          63.5322   81.9996   10.6124 C.ar    1  UNL1        0.0401
     13 C          62.9436   81.0577   11.6205 C.ar    1  UNL1        0.1724
     14 C          62.4881   81.5743   12.9530 C.ar    1  UNL1        0.1725
     15 C          62.6213   83.0327   13.2775 C.ar    1  UNL1        0.0431
     16 O          62.8104   79.5993   11.2961 O.3     1  UNL1       -0.4684
     17 C          62.7961   79.1473    9.8659 C.3     1  UNL1        0.2526
     18 O          61.8994   80.6324   13.9612 O.3     1  UNL1       -0.4684
     19 C          60.4150   80.5929   14.1734 C.3     1  UNL1        0.2526
     20 C          64.6615   91.1203   15.1770 C.3     1  UNL1        0.0289
     21 C          66.0611   91.6378   15.0246 C.3     1  UNL1        0.0367
     22 C          66.3360   93.1066   15.1546 C.3     1  UNL1        0.1426
     23 C          65.9996   93.3961   12.5947 C.3     1  UNL1        0.1741
     24 O          66.3006   93.9866   13.9403 O.3     1  UNL1       -0.3511
@<TRIPOS>BOND
     1    23    24    1
     2    24    22    1
     3    22    21    1
     4    21    20    1
     5    20     1    1
     6     1     2   ar
     7     2     3   ar
     8     3     4   ar
     9     4     5   ar
    10     5     6   ar
    11     6    10    1
    12    10    11   ar
    13    11    12   ar
    14    12    13   ar
    15    13    16    1
    16    16    17    1
    17    13    14   ar
    18    14    18    1
    19    18    19    1
    20    14    15   ar
    21     6     7   ar
    22     7     8   ar
    23     8     9   ar
    24     9     1   ar
    25     8     4   ar
    26    15    10   ar
@<TRIPOS>MOLECULE
*****
 24 26 0 0 0
SMALL
GASTEIGER

@<TRIPOS>ATOM
      1 C          63.0456   85.3729   16.1786 C.ar    1  UNL1       -0.0219
      2 C          62.5778   86.1872   17.3483 C.ar    1  UNL1       -0.0011
      3 C          62.8013   87.6704   17.3669 C.ar    1  UNL1        0.0372
      4 C          63.4925   88.3392   16.2159 C.ar    1  UNL1        0.1453
      5 O          63.8503   89.7724   15.9555 O.2     1  UNL1       -0.4535
      6 C          64.5391   89.8439   14.6249 C.ar    1  UNL1        0.1454
      7 C          64.6071   88.4548   14.0630 C.ar    1  UNL1        0.0405
      8 C          63.9603   87.5248   15.0463 C.ar    1  UNL1        0.0373
      9 C          63.7368   86.0417   15.0277 C.ar    1  UNL1       -0.0011
     10 C          65.0672   91.0864   13.9711 C.ar    1  UNL1        0.0378
     11 C          64.6002   91.4676   12.5976 C.ar    1  UNL1        0.0063
     12 C          65.1283   92.7100   11.9438 C.ar    1  UNL1        0.0401
     13 C          66.1234   93.5712   12.6635 C.ar    1  UNL1        0.1724
     14 C          66.5904   93.1900   14.0371 C.ar    1  UNL1        0.1725
     15 C          66.0623   91.9476   14.6909 C.ar    1  UNL1        0.0431
     16 O          66.6515   94.8137   12.0097 O.3     1  UNL1       -0.4684
     17 C          66.4502   95.0310   10.5393 C.3     1  UNL1        0.2526
     18 O          67.5855   94.0513   14.7568 O.3     1  UNL1       -0.4684
     19 C          68.5877   93.4267   15.6817 C.3     1  UNL1        0.2526
     20 C          62.8221   83.8897   16.1600 C.3     1  UNL1        0.0289
     21 C          62.3752   83.2144   14.8975 C.3     1  UNL1        0.0367
     22 C          63.3138   82.3061   14.1600 C.3     1  UNL1        0.1426
     23 C          62.3092   80.0655   13.3111 C.3     1  UNL1        0.1741
     24 O          63.1690   80.8181   14.2829 O.3     1  UNL1       -0.3511
@<TRIPOS>BOND
     1    23    24    1
     2    24    22    1
     3    22    21    1
     4    21    20    1
     5    20     1    1
     6     1     2   ar
     7     2     3   ar
     8     3     4   ar
     9     4     5   ar
    10     5     6   ar
    11     6    10    1
    12    10    11   ar
    13    11    12   ar
    14    12    13   ar
    15    13    16    1
    16    16    17    1
    17    13    14   ar
    18    14    18    1
    19    18    19    1
    20    14    15   ar
    21     6     7   ar
    22     7     8   ar
    23     8     9   ar
    24     9     1   ar
    25     8     4   ar
    26    15    10   ar
@<TRIPOS>MOLECULE
*****
 24 26 0 0 0
SMALL
GASTEIGER

@<TRIPOS>ATOM
      1 C          66.2617   92.7437   14.7916 C.ar    1  UNL1       -0.0219
      2 C          66.4292   93.6033   13.5739 C.ar    1  UNL1       -0.0011
      3 C          65.6984   93.2626   12.3090 C.ar    1  UNL1        0.0372
      4 C          64.8001   92.0623   12.2619 C.ar    1  UNL1        0.1453
      5 O          63.9574   91.4818   11.1652 O.2     1  UNL1       -0.4535
      6 C          63.2690   90.2633   11.7052 C.ar    1  UNL1        0.1454
      7 C          63.6863   90.0908   13.1356 C.ar    1  UNL1        0.0405
      8 C          64.6326   91.2027   13.4796 C.ar    1  UNL1        0.0373
      9 C          65.3634   91.5434   14.7445 C.ar    1  UNL1       -0.0011
     10 C          62.3284   89.3736   10.9477 C.ar    1  UNL1        0.0378
     11 C          61.3506   89.9683    9.9781 C.ar    1  UNL1        0.0063
     12 C          60.4100   89.0787    9.2206 C.ar    1  UNL1        0.0401
     13 C          60.4473   87.5942    9.4327 C.ar    1  UNL1        0.1724
     14 C          61.4252   86.9995   10.4022 C.ar    1  UNL1        0.1725
     15 C          62.3657   87.8891   11.1597 C.ar    1  UNL1        0.0431
     16 O          59.5068   86.7045    8.6751 O.3     1  UNL1       -0.4684
     17 C          59.9989   85.9301    7.4885 C.3     1  UNL1        0.2526
     18 O          61.4625   85.5149   10.6143 O.3     1  UNL1       -0.4684
     19 C          62.3870   84.9266   11.6385 C.3     1  UNL1        0.2526
     20 C          66.9924   93.0844   16.0565 C.3     1  UNL1        0.0289
     21 C          68.4784   93.2877   16.0327 C.3     1  UNL1        0.0367
     22 C          69.3635   92.2739   15.3703 C.3     1  UNL1        0.1426
     23 C          69.0559   91.5456   12.8954 C.3     1  UNL1        0.1741
     24 O          69.7163   92.4201   13.9196 O.3     1  UNL1       -0.3511
@<TRIPOS>BOND
     1    23    24    1
     2    24    22    1
     3    22    21    1
     4    21    20    1
     5    20     1    1
     6     1     2   ar
     7     2     3   ar
     8     3     4   ar
     9     4     5   ar
    10     5     6   ar
    11     6    10    1
    12    10    11   ar
    13    11    12   ar
    14    12    13   ar
    15    13    16    1
    16    16    17    1
    17    13    14   ar
    18    14    18    1
    19    18    19    1
    20    14    15   ar
    21     6     7   ar
    22     7     8   ar
    23     8     9   ar
    24     9     1   ar
    25     8     4   ar
    26    15    10   ar
@<TRIPOS>MOLECULE
*****
 24 26 0 0 0
SMALL
GASTEIGER

@<TRIPOS>ATOM
      1 C          64.9787   91.2827   14.0059 C.ar    1  UNL1       -0.0219
      2 C          64.1711   91.4180   12.7492 C.ar    1  UNL1       -0.0011
      3 C          63.4695   90.2224   12.1762 C.ar    1  UNL1        0.0372
      4 C          63.5756   88.8915   12.8599 C.ar    1  UNL1        0.1453
      5 O          62.9990   87.5460   12.5323 O.2     1  UNL1       -0.4535
      6 C          63.4503   86.5792   13.5866 C.ar    1  UNL1        0.1454
      7 C          64.3058   87.3271   14.5658 C.ar    1  UNL1        0.0405
      8 C          64.3832   88.7562   14.1166 C.ar    1  UNL1        0.0373
      9 C          65.0848   89.9518   14.6896 C.ar    1  UNL1       -0.0011
     10 C          63.1065   85.1205   13.6505 C.ar    1  UNL1        0.0378
     11 C          62.7304   84.4953   14.9612 C.ar    1  UNL1        0.0063
     12 C          62.3865   83.0367   15.0251 C.ar    1  UNL1        0.0401
     13 C          62.4188   82.2032   13.7784 C.ar    1  UNL1        0.1724
     14 C          62.7949   82.8284   12.4678 C.ar    1  UNL1        0.1725
     15 C          63.1387   84.2870   12.4039 C.ar    1  UNL1        0.0431
     16 O          62.0750   80.7445   13.8423 O.3     1  UNL1       -0.4684
     17 C          60.6700   80.3179   14.1489 C.3     1  UNL1        0.2526
     18 O          62.8272   81.9948   11.2211 O.3     1  UNL1       -0.4684
     19 C          63.9700   82.1287   10.2588 C.3     1  UNL1        0.2526
     20 C          65.6803   92.4783   14.5789 C.3     1  UNL1        0.0289
     21 C          66.9558   92.9676   13.9595 C.3     1  UNL1        0.0367
     22 C          67.9298   91.9880   13.3750 C.3     1  UNL1        0.1426
     23 C          67.2295   92.5494   10.9369 C.3     1  UNL1        0.1741
     24 O          68.2460   92.0287   11.9093 O.3     1  UNL1       -0.3511
@<TRIPOS>BOND
     1    23    24    1
     2    24    22    1
     3    22    21    1
     4    21    20    1
     5    20     1    1
     6     1     2   ar
     7     2     3   ar
     8     3     4   ar
     9     4     5   ar
    10     5     6   ar
    11     6    10    1
    12    10    11   ar
    13    11    12   ar
    14    12    13   ar
    15    13    16    1
    16    16    17    1
    17    13    14   ar
    18    14    18    1
    19    18    19    1
    20    14    15   ar
    21     6     7   ar
    22     7     8   ar
    23     8     9   ar
    24     9     1   ar
    25     8     4   ar
    26    15    10   ar
@<TRIPOS>MOLECULE
*****
 24 26 0 0 0
SMALL
GASTEIGER

@<TRIPOS>ATOM
      1 C          65.8299   92.7192   14.4433 C.ar    1  UNL1       -0.0219
      2 C          65.2909   91.9491   15.6122 C.ar    1  UNL1       -0.0011
      3 C          64.3074   90.8386   15.3895 C.ar    1  UNL1        0.0372
      4 C          63.8629   90.4982   13.9979 C.ar    1  UNL1        0.1453
      5 O          62.9123   89.4637   13.4727 O.2     1  UNL1       -0.4535
      6 C          62.8637   89.5944   11.9792 C.ar    1  UNL1        0.1454
      7 C          63.7844   90.7097   11.5813 C.ar    1  UNL1        0.0405
      8 C          64.4019   91.2684   12.8290 C.ar    1  UNL1        0.0373
      9 C          65.3854   92.3788   13.0517 C.ar    1  UNL1       -0.0011
     10 C          62.0392   88.7567   11.0472 C.ar    1  UNL1        0.0378
     11 C          62.1686   87.2624   11.0686 C.ar    1  UNL1        0.0063
     12 C          61.3442   86.4248   10.1367 C.ar    1  UNL1        0.0401
     13 C          60.3904   87.0814    9.1832 C.ar    1  UNL1        0.1724
     14 C          60.2610   88.5756    9.1618 C.ar    1  UNL1        0.1725
     15 C          61.0854   89.4133   10.0937 C.ar    1  UNL1        0.0431
     16 O          59.5659   86.2437    8.2512 O.3     1  UNL1       -0.4684
     17 C          60.2120   85.5734    7.0751 C.3     1  UNL1        0.2526
     18 O          59.3071   89.2322    8.2083 O.3     1  UNL1       -0.4684
     19 C          59.6726   89.3739    6.7604 C.3     1  UNL1        0.2526
     20 C          66.8134   93.8296   14.6660 C.3     1  UNL1        0.0289
     21 C          68.0016   93.6121   15.5553 C.3     1  UNL1        0.0367
     22 C          68.9302   92.4624   15.2984 C.3     1  UNL1        0.1426
     23 C          68.9773   91.6113   12.8441 C.3     1  UNL1        0.1741
     24 O          69.6310   92.3451   13.9773 O.3     1  UNL1       -0.3511
@<TRIPOS>BOND
     1    23    24    1
     2    24    22    1
     3    22    21    1
     4    21    20    1
     5    20     1    1
     6     1     2   ar
     7     2     3   ar
     8     3     4   ar
     9     4     5   ar
    10     5     6   ar
    11     6    10    1
    12    10    11   ar
    13    11    12   ar
    14    12    13   ar
    15    13    16    1
    16    16    17    1
    17    13    14   ar
    18    14    18    1
    19    18    19    1
    20    14    15   ar
    21     6     7   ar
    22     7     8   ar
    23     8     9   ar
    24     9     1   ar
    25     8     4   ar
    26    15    10   ar
@<TRIPOS>MOLECULE
*****
 24 26 0 0 0
SMALL
GASTEIGER

@<TRIPOS>ATOM
      1 C          66.0905   94.1840   12.1514 C.ar    1  UNL1       -0.0219
      2 C          66.7160   94.4970   13.4783 C.ar    1  UNL1       -0.0011
      3 C          66.5848   93.5288   14.6164 C.ar    1  UNL1        0.0372
      4 C          65.8282   92.2475   14.4275 C.ar    1  UNL1        0.1453
      5 O          65.5339   91.1089   15.3588 O.2     1  UNL1       -0.4535
      6 C          64.7266   90.0922   14.6074 C.ar    1  UNL1        0.1454
      7 C          64.5219   90.6024   13.2117 C.ar    1  UNL1        0.0405
      8 C          65.2027   91.9344   13.1006 C.ar    1  UNL1        0.0373
      9 C          65.3339   92.9027   11.9625 C.ar    1  UNL1       -0.0011
     10 C          64.2140   88.7934   15.1554 C.ar    1  UNL1        0.0378
     11 C          63.3568   88.7849   16.3864 C.ar    1  UNL1        0.0063
     12 C          62.8442   87.4862   16.9344 C.ar    1  UNL1        0.0401
     13 C          63.1889   86.1959   16.2516 C.ar    1  UNL1        0.1724
     14 C          64.0460   86.2043   15.0207 C.ar    1  UNL1        0.1725
     15 C          64.5586   87.5031   14.4726 C.ar    1  UNL1        0.0431
     16 O          62.6763   84.8970   16.7997 O.3     1  UNL1       -0.4684
     17 C          62.1180   83.8595   15.8713 C.3     1  UNL1        0.2526
     18 O          64.3906   84.9139   14.3378 O.3     1  UNL1       -0.4684
     19 C          63.8452   84.6192   12.9720 C.3     1  UNL1        0.2526
     20 C          66.2217   95.1523   11.0133 C.3     1  UNL1        0.0289
     21 C          66.4751   94.6469    9.6240 C.3     1  UNL1        0.0367
     22 C          67.8719   94.6222    9.0779 C.3     1  UNL1        0.1426
     23 C          68.5711   92.2184    9.7729 C.3     1  UNL1        0.1741
     24 O          68.8864   93.6802    9.6554 O.3     1  UNL1       -0.3511
@<TRIPOS>BOND
     1    23    24    1
     2    24    22    1
     3    22    21    1
     4    21    20    1
     5    20     1    1
     6     1     2   ar
     7     2     3   ar
     8     3     4   ar
     9     4     5   ar
    10     5     6   ar
    11     6    10    1
    12    10    11   ar
    13    11    12   ar
    14    12    13   ar
    15    13    16    1
    16    16    17    1
    17    13    14   ar
    18    14    18    1
    19    18    19    1
    20    14    15   ar
    21     6     7   ar
    22     7     8   ar
    23     8     9   ar
    24     9     1   ar
    25     8     4   ar
    26    15    10   ar
@<TRIPOS>MOLECULE
*****
 24 26 0 0 0
SMALL
GASTEIGER

@<TRIPOS>ATOM
      1 C          59.8868   88.4481    8.0115 C.ar    1  UNL1       -0.0219
      2 C          60.1511   87.0877    8.5855 C.ar    1  UNL1       -0.0011
      3 C          60.9855   86.9454    9.8239 C.ar    1  UNL1        0.0372
      4 C          61.5556   88.1634   10.4882 C.ar    1  UNL1        0.1453
      5 O          62.4085   88.3338   11.7103 O.2     1  UNL1       -0.4535
      6 C          62.6713   89.7994   11.8915 C.ar    1  UNL1        0.1454
      7 C          61.9809   90.5349   10.7815 C.ar    1  UNL1        0.0405
      8 C          61.2914   89.5238    9.9141 C.ar    1  UNL1        0.0373
      9 C          60.4570   89.6661    8.6758 C.ar    1  UNL1       -0.0011
     10 C          63.4823   90.4205   12.9901 C.ar    1  UNL1        0.0378
     11 C          64.6080   91.3537   12.6556 C.ar    1  UNL1        0.0063
     12 C          65.4189   91.9748   13.7541 C.ar    1  UNL1        0.0401
     13 C          65.1041   91.6626   15.1870 C.ar    1  UNL1        0.1724
     14 C          63.9784   90.7294   15.5215 C.ar    1  UNL1        0.1725
     15 C          63.1675   90.1083   14.4231 C.ar    1  UNL1        0.0431
     16 O          65.9150   92.2837   16.2856 O.3     1  UNL1       -0.4684
     17 C          67.3080   92.7663   16.0085 C.3     1  UNL1        0.2526
     18 O          63.6636   90.4172   16.9546 O.3     1  UNL1       -0.4684
     19 C          63.1313   89.0656   17.3283 C.3     1  UNL1        0.2526
     20 C          59.0524   88.5904    6.7731 C.3     1  UNL1        0.0289
     21 C          58.6415   89.9525    6.2981 C.3     1  UNL1        0.0367
     22 C          59.4577   90.6623    5.2590 C.3     1  UNL1        0.1426
     23 C          59.7860   92.6658    3.6377 C.3     1  UNL1        0.1741
     24 O          58.9790   91.9653    4.6903 O.3     1  UNL1       -0.3511
@<TRIPOS>BOND
     1    23    24    1
     2    24    22    1
     3    22    21    1
     4    21    20    1
     5    20     1    1
     6     1     2   ar
     7     2     3   ar
     8     3     4   ar
     9     4     5   ar
    10     5     6   ar
    11     6    10    1
    12    10    11   ar
    13    11    12   ar
    14    12    13   ar
    15    13    16    1
    16    16    17    1
    17    13    14   ar
    18    14    18    1
    19    18    19    1
    20    14    15   ar
    21     6     7   ar
    22     7     8   ar
    23     8     9   ar
    24     9     1   ar
    25     8     4   ar
    26    15    10   ar
