@<TRIPOS>MOLECULE
*****
 22 24 0 0 0
SMALL
GASTEIGER

@<TRIPOS>ATOM
      1 C          62.8311   85.0880   11.2320 C.ar    1  UNL1        0.0428
      2 C          63.0065   84.6102    9.8209 C.ar    1  UNL1        0.0077
      3 C          63.8898   83.4328    9.5321 C.ar    1  UNL1        0.0006
      4 C          64.5977   82.7331   10.6543 C.ar    1  UNL1        0.0013
      5 C          64.4223   83.2108   12.0653 C.ar    1  UNL1        0.0150
      6 C          63.5390   84.3883   12.3542 C.ar    1  UNL1        0.0540
      7 N          63.3636   84.8661   13.7652 N.pl3   1  UNL1       -0.3043
      8 C          64.1863   86.0111   14.2770 C.3     1  UNL1        0.1079
      9 C          64.0109   86.4889   15.6880 C.3     1  UNL1        0.0903
     10 N          63.0128   85.8215   16.5873 N.3     1  UNL1       -0.2946
     11 C          62.1902   84.6764   16.0754 C.3     1  UNL1        0.0903
     12 C          62.3656   84.1987   14.6643 C.3     1  UNL1        0.1079
     13 H          62.3579   86.5436   16.8874 H       1  UNL1        0.1233
     14 S          61.9478   86.2654   11.5208 S.3     1  UNL1       -0.0848
     15 C          59.3343   89.2335    7.0086 C.3     1  UNL1        0.0311
     16 C          59.9877   88.4915    8.1366 C.ar    1  UNL1       -0.0210
     17 C          59.8283   87.0041    8.2479 C.ar    1  UNL1       -0.0037
     18 C          60.4817   86.2621    9.3760 C.ar    1  UNL1        0.0070
     19 C          61.2944   87.0074   10.3927 C.ar    1  UNL1        0.0400
     20 C          61.4538   88.4947   10.2815 C.ar    1  UNL1        0.0633
     21 CL         62.2667   89.2401   11.2983 Cl      1  UNL1       -0.0817
     22 C          60.8004   89.2368    9.1534 C.ar    1  UNL1        0.0076
@<TRIPOS>BOND
     1    15    16    1
     2    16    17   ar
     3    17    18   ar
     4    18    19   ar
     5    19    14    1
     6    14     1    1
     7     1     2   ar
     8     2     3   ar
     9     3     4   ar
    10     4     5   ar
    11     5     6   ar
    12     6     7    1
    13     7     8    1
    14     8     9    1
    15     9    10    1
    16    10    11    1
    17    11    12    1
    18    19    20   ar
    19    20    21    1
    20    20    22   ar
    21    22    16   ar
    22     6     1   ar
    23    12     7    1
    24    10    13    1
@<TRIPOS>MOLECULE
*****
 22 24 0 0 0
SMALL
GASTEIGER

@<TRIPOS>ATOM
      1 C          63.1855   90.4643   12.1270 C.ar    1  UNL1        0.0428
      2 C          63.4588   91.3787   10.9696 C.ar    1  UNL1        0.0077
      3 C          64.7117   92.2029   10.9445 C.ar    1  UNL1        0.0006
      4 C          65.6915   92.1129   12.0768 C.ar    1  UNL1        0.0013
      5 C          65.4183   91.1986   13.2341 C.ar    1  UNL1        0.0150
      6 C          64.1652   90.3743   13.2593 C.ar    1  UNL1        0.0540
      7 N          63.8920   89.4601   14.4166 N.pl3   1  UNL1       -0.3043
      8 C          64.2378   88.0037   14.3198 C.3     1  UNL1        0.1079
      9 C          63.9646   87.0895   15.4772 C.3     1  UNL1        0.0903
     10 N          63.3456   87.6316   16.7314 N.3     1  UNL1       -0.2946
     11 C          62.9998   89.0880   16.8281 C.3     1  UNL1        0.0903
     12 C          63.2730   90.0022   15.6707 C.3     1  UNL1        0.1079
     13 H          63.9966   87.4324   17.4909 H       1  UNL1        0.1233
     14 S          61.9325   89.6401   12.1521 S.3     1  UNL1       -0.0848
     15 C          60.7542   85.8351    7.6651 C.3     1  UNL1        0.0311
     16 C          61.0487   86.7863    8.7869 C.ar    1  UNL1       -0.0210
     17 C          62.0745   86.4308    9.8219 C.ar    1  UNL1       -0.0037
     18 C          62.3691   87.3820   10.9437 C.ar    1  UNL1        0.0070
     19 C          61.6379   88.6889   11.0304 C.ar    1  UNL1        0.0400
     20 C          60.6122   89.0444    9.9953 C.ar    1  UNL1        0.0633
     21 CL         59.8809   90.3513   10.0820 Cl      1  UNL1       -0.0817
     22 C          60.3176   88.0932    8.8736 C.ar    1  UNL1        0.0076
@<TRIPOS>BOND
     1    15    16    1
     2    16    17   ar
     3    17    18   ar
     4    18    19   ar
     5    19    14    1
     6    14     1    1
     7     1     2   ar
     8     2     3   ar
     9     3     4   ar
    10     4     5   ar
    11     5     6   ar
    12     6     7    1
    13     7     8    1
    14     8     9    1
    15     9    10    1
    16    10    11    1
    17    11    12    1
    18    19    20   ar
    19    20    21    1
    20    20    22   ar
    21    22    16   ar
    22     6     1   ar
    23    12     7    1
    24    10    13    1
@<TRIPOS>MOLECULE
*****
 22 24 0 0 0
SMALL
GASTEIGER

@<TRIPOS>ATOM
      1 C          63.0533   86.3099   12.5436 C.ar    1  UNL1        0.0428
      2 C          63.2261   87.7980   12.4673 C.ar    1  UNL1        0.0077
      3 C          63.9244   88.5297   13.5750 C.ar    1  UNL1        0.0006
      4 C          64.4499   87.7733   14.7590 C.ar    1  UNL1        0.0013
      5 C          64.2771   86.2853   14.8352 C.ar    1  UNL1        0.0150
      6 C          63.5788   85.5535   13.7275 C.ar    1  UNL1        0.0540
      7 N          63.4060   84.0655   13.8038 N.pl3   1  UNL1       -0.3043
      8 C          64.3882   83.1604   13.1211 C.3     1  UNL1        0.1079
      9 C          64.2154   81.6724   13.1974 C.3     1  UNL1        0.0903
     10 N          63.0604   81.0893   13.9564 N.3     1  UNL1       -0.2946
     11 C          62.0782   81.9944   14.6392 C.3     1  UNL1        0.0903
     12 C          62.2510   83.4825   14.5629 C.3     1  UNL1        0.1079
     13 H          63.4563   80.4867   14.6779 H       1  UNL1        0.1233
     14 S          62.3550   85.5782   11.4359 S.3     1  UNL1       -0.0848
     15 C          59.1985   88.6306    7.3470 C.3     1  UNL1        0.0311
     16 C          59.9876   87.8675    8.3692 C.ar    1  UNL1       -0.0210
     17 C          59.7275   88.0822    9.8308 C.ar    1  UNL1       -0.0037
     18 C          60.5167   87.3191   10.8530 C.ar    1  UNL1        0.0070
     19 C          61.5658   86.3413   10.4137 C.ar    1  UNL1        0.0400
     20 C          61.8259   86.1266    8.9521 C.ar    1  UNL1        0.0633
     21 CL         62.8752   85.1487    8.5127 Cl      1  UNL1       -0.0817
     22 C          61.0368   86.8897    7.9299 C.ar    1  UNL1        0.0076
@<TRIPOS>BOND
     1    15    16    1
     2    16    17   ar
     3    17    18   ar
     4    18    19   ar
     5    19    14    1
     6    14     1    1
     7     1     2   ar
     8     2     3   ar
     9     3     4   ar
    10     4     5   ar
    11     5     6   ar
    12     6     7    1
    13     7     8    1
    14     8     9    1
    15     9    10    1
    16    10    11    1
    17    11    12    1
    18    19    20   ar
    19    20    21    1
    20    20    22   ar
    21    22    16   ar
    22     6     1   ar
    23    12     7    1
    24    10    13    1
@<TRIPOS>MOLECULE
*****
 22 24 0 0 0
SMALL
GASTEIGER

@<TRIPOS>ATOM
      1 C          62.6315   85.4638   11.1187 C.ar    1  UNL1        0.0428
      2 C          62.7338   85.1435    9.6568 C.ar    1  UNL1        0.0077
      3 C          63.5413   83.9641    9.2021 C.ar    1  UNL1        0.0006
      4 C          64.2465   83.1048   10.2093 C.ar    1  UNL1        0.0013
      5 C          64.1442   83.4249   11.6711 C.ar    1  UNL1        0.0150
      6 C          63.3367   84.6045   12.1259 C.ar    1  UNL1        0.0540
      7 N          63.2344   84.9246   13.5877 N.pl3   1  UNL1       -0.3043
      8 C          62.2768   84.1645   14.4567 C.3     1  UNL1        0.1079
      9 C          62.1745   84.4847   15.9186 C.3     1  UNL1        0.0903
     10 N          63.0298   85.5650   16.5114 N.3     1  UNL1       -0.2946
     11 C          63.9874   86.3252   15.6423 C.3     1  UNL1        0.0903
     12 C          64.0897   86.0049   14.1804 C.3     1  UNL1        0.1079
     13 H          63.5835   85.1304   17.2496 H       1  UNL1        0.1233
     14 S          61.8240   86.6432   11.5734 S.3     1  UNL1       -0.0848
     15 C          63.9240   92.2060   10.7696 C.3     1  UNL1        0.0311
     16 C          63.3990   90.8153   10.9705 C.ar    1  UNL1       -0.0210
     17 C          63.7434   90.0566   12.2178 C.ar    1  UNL1       -0.0037
     18 C          63.2184   88.6659   12.4187 C.ar    1  UNL1        0.0070
     19 C          62.3490   88.0339   11.3724 C.ar    1  UNL1        0.0400
     20 C          62.0046   88.7927   10.1252 C.ar    1  UNL1        0.0633
     21 CL         61.1352   88.1607    9.0788 Cl      1  UNL1       -0.0817
     22 C          62.5296   90.1833    9.9242 C.ar    1  UNL1        0.0076
@<TRIPOS>BOND
     1    15    16    1
     2    16    17   ar
     3    17    18   ar
     4    18    19   ar
     5    19    14    1
     6    14     1    1
     7     1     2   ar
     8     2     3   ar
     9     3     4   ar
    10     4     5   ar
    11     5     6   ar
    12     6     7    1
    13     7     8    1
    14     8     9    1
    15     9    10    1
    16    10    11    1
    17    11    12    1
    18    19    20   ar
    19    20    21    1
    20    20    22   ar
    21    22    16   ar
    22     6     1   ar
    23    12     7    1
    24    10    13    1
@<TRIPOS>MOLECULE
*****
 22 24 0 0 0
SMALL
GASTEIGER

@<TRIPOS>ATOM
      1 C          62.1767   88.1313   11.1462 C.ar    1  UNL1        0.0428
      2 C          61.8089   89.2897   10.2669 C.ar    1  UNL1        0.0077
      3 C          62.4142   90.6398   10.5130 C.ar    1  UNL1        0.0006
      4 C          63.3872   90.8318   11.6383 C.ar    1  UNL1        0.0013
      5 C          63.7550   89.6735   12.5175 C.ar    1  UNL1        0.0150
      6 C          63.1497   88.3232   12.2715 C.ar    1  UNL1        0.0540
      7 N          63.5175   87.1649   13.1507 N.pl3   1  UNL1       -0.3043
      8 C          63.2360   85.7622   12.7001 C.3     1  UNL1        0.1079
      9 C          63.6038   84.6039   13.5793 C.3     1  UNL1        0.0903
     10 N          64.2531   84.8484   14.9093 N.3     1  UNL1       -0.2946
     11 C          64.5346   86.2511   15.3599 C.3     1  UNL1        0.0903
     12 C          64.1668   87.4094   14.4806 C.3     1  UNL1        0.1079
     13 H          65.1477   84.3587   14.8946 H       1  UNL1        0.1233
     14 S          61.5714   86.7811   10.9001 S.3     1  UNL1       -0.0848
     15 C          61.8968   84.2959    5.4486 C.3     1  UNL1        0.0311
     16 C          61.8155   84.9172    6.8115 C.ar    1  UNL1       -0.0210
     17 C          62.9629   84.7804    7.7678 C.ar    1  UNL1       -0.0037
     18 C          62.8816   85.4017    9.1307 C.ar    1  UNL1        0.0070
     19 C          61.6528   86.1598    9.5372 C.ar    1  UNL1        0.0400
     20 C          60.5053   86.2966    8.5809 C.ar    1  UNL1        0.0633
     21 CL         59.2764   87.0547    8.9874 Cl      1  UNL1       -0.0817
     22 C          60.5867   85.6753    7.2180 C.ar    1  UNL1        0.0076
@<TRIPOS>BOND
     1    15    16    1
     2    16    17   ar
     3    17    18   ar
     4    18    19   ar
     5    19    14    1
     6    14     1    1
     7     1     2   ar
     8     2     3   ar
     9     3     4   ar
    10     4     5   ar
    11     5     6   ar
    12     6     7    1
    13     7     8    1
    14     8     9    1
    15     9    10    1
    16    10    11    1
    17    11    12    1
    18    19    20   ar
    19    20    21    1
    20    20    22   ar
    21    22    16   ar
    22     6     1   ar
    23    12     7    1
    24    10    13    1
@<TRIPOS>MOLECULE
*****
 22 24 0 0 0
SMALL
GASTEIGER

@<TRIPOS>ATOM
      1 C          62.3239   86.4316   11.3694 C.ar    1  UNL1        0.0428
      2 C          61.5559   85.6369   10.3550 C.ar    1  UNL1        0.0077
      3 C          60.8403   86.3379    9.2386 C.ar    1  UNL1        0.0006
      4 C          60.8926   87.8335    9.1364 C.ar    1  UNL1        0.0013
      5 C          61.6605   88.6281   10.1507 C.ar    1  UNL1        0.0150
      6 C          62.3762   87.9272   11.2672 C.ar    1  UNL1        0.0540
      7 N          63.1441   88.7218   12.2815 N.pl3   1  UNL1       -0.3043
      8 C          63.7095   88.0435   13.4940 C.3     1  UNL1        0.1079
      9 C          64.4774   88.8381   14.5083 C.3     1  UNL1        0.0903
     10 N          64.6800   90.3111   14.3101 N.3     1  UNL1       -0.2946
     11 C          64.1146   90.9895   13.0976 C.3     1  UNL1        0.0903
     12 C          63.3466   90.1948   12.0833 C.3     1  UNL1        0.1079
     13 H          65.6873   90.4703   14.2937 H       1  UNL1        0.1233
     14 S          63.0395   85.7306   12.4858 S.3     1  UNL1       -0.0848
     15 C          62.3523   79.8186   13.2451 C.3     1  UNL1        0.0311
     16 C          62.5241   81.2966   13.0553 C.ar    1  UNL1       -0.0210
     17 C          62.9285   81.8388   11.7165 C.ar    1  UNL1       -0.0037
     18 C          63.1003   83.3168   11.5267 C.ar    1  UNL1        0.0070
     19 C          62.8677   84.2526   12.6756 C.ar    1  UNL1        0.0400
     20 C          62.4632   83.7104   14.0144 C.ar    1  UNL1        0.0633
     21 CL         62.2306   84.6462   15.1635 Cl      1  UNL1       -0.0817
     22 C          62.2914   82.2324   14.2042 C.ar    1  UNL1        0.0076
@<TRIPOS>BOND
     1    15    16    1
     2    16    17   ar
     3    17    18   ar
     4    18    19   ar
     5    19    14    1
     6    14     1    1
     7     1     2   ar
     8     2     3   ar
     9     3     4   ar
    10     4     5   ar
    11     5     6   ar
    12     6     7    1
    13     7     8    1
    14     8     9    1
    15     9    10    1
    16    10    11    1
    17    11    12    1
    18    19    20   ar
    19    20    21    1
    20    20    22   ar
    21    22    16   ar
    22     6     1   ar
    23    12     7    1
    24    10    13    1
@<TRIPOS>MOLECULE
*****
 22 24 0 0 0
SMALL
GASTEIGER

@<TRIPOS>ATOM
      1 C          65.1544   92.0870   13.3347 C.ar    1  UNL1        0.0428
      2 C          64.8034   91.6350   14.7213 C.ar    1  UNL1        0.0077
      3 C          65.7614   91.8694   15.8515 C.ar    1  UNL1        0.0006
      4 C          67.0703   92.5557   15.5952 C.ar    1  UNL1        0.0013
      5 C          67.4212   93.0077   14.2086 C.ar    1  UNL1        0.0150
      6 C          66.4633   92.7733   13.0784 C.ar    1  UNL1        0.0540
      7 N          66.8142   93.2253   11.6918 N.pl3   1  UNL1       -0.3043
      8 C          66.4001   94.5875   11.2197 C.3     1  UNL1        0.1079
      9 C          66.7511   95.0395    9.8332 C.3     1  UNL1        0.0903
     10 N          67.5162   94.1293    8.9187 N.3     1  UNL1       -0.2946
     11 C          67.9302   92.7670    9.3908 C.3     1  UNL1        0.0903
     12 C          67.5792   92.3151   10.7775 C.3     1  UNL1        0.1079
     13 H          68.3700   94.6229    8.6587 H       1  UNL1        0.1233
     14 S          64.1964   91.8526   12.2045 S.3     1  UNL1       -0.0848
     15 C          62.0136   86.3523   11.2136 C.3     1  UNL1        0.0311
     16 C          62.5593   87.7274   11.4613 C.ar    1  UNL1       -0.0210
     17 C          63.2972   88.0236   12.7332 C.ar    1  UNL1       -0.0037
     18 C          63.8429   89.3986   12.9810 C.ar    1  UNL1        0.0070
     19 C          63.6507   90.4775   11.9568 C.ar    1  UNL1        0.0400
     20 C          62.9129   90.1814   10.6849 C.ar    1  UNL1        0.0633
     21 CL         62.7207   91.2603    9.6606 Cl      1  UNL1       -0.0817
     22 C          62.3672   88.8063   10.4371 C.ar    1  UNL1        0.0076
@<TRIPOS>BOND
     1    15    16    1
     2    16    17   ar
     3    17    18   ar
     4    18    19   ar
     5    19    14    1
     6    14     1    1
     7     1     2   ar
     8     2     3   ar
     9     3     4   ar
    10     4     5   ar
    11     5     6   ar
    12     6     7    1
    13     7     8    1
    14     8     9    1
    15     9    10    1
    16    10    11    1
    17    11    12    1
    18    19    20   ar
    19    20    21    1
    20    20    22   ar
    21    22    16   ar
    22     6     1   ar
    23    12     7    1
    24    10    13    1
@<TRIPOS>MOLECULE
*****
 22 24 0 0 0
SMALL
GASTEIGER

@<TRIPOS>ATOM
      1 C          61.6071   86.9676    9.8394 C.ar    1  UNL1        0.0428
      2 C          60.8450   85.9839    9.0018 C.ar    1  UNL1        0.0077
      3 C          59.7054   86.4518    8.1460 C.ar    1  UNL1        0.0006
      4 C          59.3280   87.9034    8.1278 C.ar    1  UNL1        0.0013
      5 C          60.0901   88.8871    8.9653 C.ar    1  UNL1        0.0150
      6 C          61.2297   88.4192    9.8212 C.ar    1  UNL1        0.0540
      7 N          61.9918   89.4029   10.6587 N.pl3   1  UNL1       -0.3043
      8 C          62.8604   90.4337   10.0008 C.3     1  UNL1        0.1079
      9 C          63.6225   91.4174   10.8384 C.3     1  UNL1        0.0903
     10 N          63.5160   91.3703   12.3339 N.3     1  UNL1       -0.2946
     11 C          62.6474   90.3394   12.9918 C.3     1  UNL1        0.0903
     12 C          61.8853   89.3557   12.1542 C.3     1  UNL1        0.1079
     13 H          63.1696   92.2817   12.6333 H       1  UNL1        0.1233
     14 S          62.7467   86.4996   10.6952 S.3     1  UNL1       -0.0848
     15 C          62.9005   80.8282   12.6476 C.3     1  UNL1        0.0311
     16 C          62.8620   82.2461   12.1595 C.ar    1  UNL1       -0.0210
     17 C          62.3961   83.3412   13.0725 C.ar    1  UNL1       -0.0037
     18 C          62.3577   84.7590   12.5844 C.ar    1  UNL1        0.0070
     19 C          62.7851   85.0818   11.1833 C.ar    1  UNL1        0.0400
     20 C          63.2510   83.9867   10.2703 C.ar    1  UNL1        0.0633
     21 CL         63.6785   84.3094    8.8691 Cl      1  UNL1       -0.0817
     22 C          63.2895   82.5688   10.7584 C.ar    1  UNL1        0.0076
@<TRIPOS>BOND
     1    15    16    1
     2    16    17   ar
     3    17    18   ar
     4    18    19   ar
     5    19    14    1
     6    14     1    1
     7     1     2   ar
     8     2     3   ar
     9     3     4   ar
    10     4     5   ar
    11     5     6   ar
    12     6     7    1
    13     7     8    1
    14     8     9    1
    15     9    10    1
    16    10    11    1
    17    11    12    1
    18    19    20   ar
    19    20    21    1
    20    20    22   ar
    21    22    16   ar
    22     6     1   ar
    23    12     7    1
    24    10    13    1
@<TRIPOS>MOLECULE
*****
 22 24 0 0 0
SMALL
GASTEIGER

@<TRIPOS>ATOM
      1 C          61.9401   87.2699   10.9545 C.ar    1  UNL1        0.0428
      2 C          61.0761   86.3326   10.1640 C.ar    1  UNL1        0.0077
      3 C          60.0478   86.8781    9.2180 C.ar    1  UNL1        0.0006
      4 C          59.8834   88.3609    9.0624 C.ar    1  UNL1        0.0013
      5 C          60.7474   89.2983    9.8529 C.ar    1  UNL1        0.0150
      6 C          61.7757   88.7528   10.7990 C.ar    1  UNL1        0.0540
      7 N          62.6397   89.6901   11.5895 N.pl3   1  UNL1       -0.3043
      8 C          62.5733   89.6878   13.0880 C.3     1  UNL1        0.1079
      9 C          63.4372   90.6251   13.8785 C.3     1  UNL1        0.0903
     10 N          64.3676   91.5649   13.1705 N.3     1  UNL1       -0.2946
     11 C          64.4340   91.5673   11.6719 C.3     1  UNL1        0.0903
     12 C          63.5700   90.6298   10.8814 C.3     1  UNL1        0.1079
     13 H          65.3080   91.3571   13.5065 H       1  UNL1        0.1233
     14 S          62.9684   86.7245   11.9006 S.3     1  UNL1       -0.0848
     15 C          62.6401   81.0175   13.7235 C.3     1  UNL1        0.0311
     16 C          62.7221   82.4443   13.2678 C.ar    1  UNL1       -0.0210
     17 C          62.4294   83.5570   14.2301 C.ar    1  UNL1       -0.0037
     18 C          62.5115   84.9837   13.7743 C.ar    1  UNL1        0.0070
     19 C          62.8863   85.2977   12.3563 C.ar    1  UNL1        0.0400
     20 C          63.1790   84.1850   11.3940 C.ar    1  UNL1        0.0633
     21 CL         63.5538   84.4990    9.9758 Cl      1  UNL1       -0.0817
     22 C          63.0969   82.7583   11.8497 C.ar    1  UNL1        0.0076
@<TRIPOS>BOND
     1    15    16    1
     2    16    17   ar
     3    17    18   ar
     4    18    19   ar
     5    19    14    1
     6    14     1    1
     7     1     2   ar
     8     2     3   ar
     9     3     4   ar
    10     4     5   ar
    11     5     6   ar
    12     6     7    1
    13     7     8    1
    14     8     9    1
    15     9    10    1
    16    10    11    1
    17    11    12    1
    18    19    20   ar
    19    20    21    1
    20    20    22   ar
    21    22    16   ar
    22     6     1   ar
    23    12     7    1
    24    10    13    1
