@<TRIPOS>MOLECULE
*****
 13 14 0 0 0
SMALL
GASTEIGER

@<TRIPOS>ATOM
      1 C          65.2581   91.3916   14.4324 C.ar    1  UNL1        0.0716
      2 C          66.6925   91.4150   14.8708 C.ar    1  UNL1        0.0103
      3 C          67.5094   91.9915   13.7527 C.ar    1  UNL1        0.0071
      4 C          66.5801   92.3244   12.6233 C.ar    1  UNL1        0.0311
      5 S          65.1887   91.9536   13.0434 S.2     1  UNL1       -0.0836
      6 C          66.9731   92.9230   11.3053 C.ar    1  UNL1        0.0252
      7 C          67.9030   92.1807   10.3919 C.ar    1  UNL1        0.0036
      8 C          68.2961   92.7793    9.0739 C.ar    1  UNL1        0.0207
      9 C          67.7592   94.1202    8.6693 C.ar    1  UNL1        0.0989
     10 N          66.8293   94.8625    9.5826 N.ar    1  UNL1       -0.2423
     11 C          66.4363   94.2639   10.9006 C.ar    1  UNL1        0.0993
     12 O          63.6109   91.6828   16.4204 O.2     1  UNL1       -0.2826
     13 C          64.0970   90.8936   15.2411 C.2     1  UNL1        0.2406
@<TRIPOS>BOND
     1    12    13    2
     2    13     1    1
     3     1     2   ar
     4     2     3   ar
     5     3     4   ar
     6     4     6    1
     7     6     7   ar
     8     7     8   ar
     9     8     9   ar
    10     9    10   ar
    11    10    11   ar
    12     4     5   ar
    13     5     1   ar
    14    11     6   ar
@<TRIPOS>MOLECULE
*****
 13 14 0 0 0
SMALL
GASTEIGER

@<TRIPOS>ATOM
      1 C          63.3550   85.4108   15.9770 C.ar    1  UNL1        0.0716
      2 C          64.6921   85.7791   15.4056 C.ar    1  UNL1        0.0103
      3 C          64.9358   84.9162   14.2031 C.ar    1  UNL1        0.0071
      4 C          63.7494   84.0146   14.0313 C.ar    1  UNL1        0.0311
      5 S          62.7724   84.3203   15.1277 S.2     1  UNL1       -0.0836
      6 C          63.5712   82.9876   12.9526 C.ar    1  UNL1        0.0252
      7 C          63.9782   83.3018   11.5434 C.ar    1  UNL1        0.0036
      8 C          63.8000   82.2748   10.4648 C.ar    1  UNL1        0.0207
      9 C          63.2150   80.9337   10.7952 C.ar    1  UNL1        0.0989
     10 N          62.8081   80.6196   12.2044 N.ar    1  UNL1       -0.2423
     11 C          62.9862   81.6466   13.2830 C.ar    1  UNL1        0.0993
     12 O          61.2439   86.3272   17.1827 O.2     1  UNL1       -0.2826
     13 C          62.7132   86.0252   17.1856 C.2     1  UNL1        0.2406
@<TRIPOS>BOND
     1    12    13    2
     2    13     1    1
     3     1     2   ar
     4     2     3   ar
     5     3     4   ar
     6     4     6    1
     7     6     7   ar
     8     7     8   ar
     9     8     9   ar
    10     9    10   ar
    11    10    11   ar
    12     4     5   ar
    13     5     1   ar
    14    11     6   ar
@<TRIPOS>MOLECULE
*****
 13 14 0 0 0
SMALL
GASTEIGER

@<TRIPOS>ATOM
      1 C          64.4494   91.2351   13.9314 C.ar    1  UNL1        0.0716
      2 C          63.5581   90.8744   12.7800 C.ar    1  UNL1        0.0103
      3 C          64.1212   91.5072   11.5421 C.ar    1  UNL1        0.0071
      4 C          65.3605   92.2589   11.9283 C.ar    1  UNL1        0.0311
      5 S          65.5633   92.0907   13.4050 S.2     1  UNL1       -0.0836
      6 C          66.2422   93.0413   11.0007 C.ar    1  UNL1        0.0252
      7 C          67.4016   92.3715   10.3248 C.ar    1  UNL1        0.0036
      8 C          68.2832   93.1539    9.3973 C.ar    1  UNL1        0.0207
      9 C          68.0053   94.6063    9.1455 C.ar    1  UNL1        0.0989
     10 N          66.8459   95.2762    9.8214 N.ar    1  UNL1       -0.2423
     11 C          65.9643   94.4937   10.7489 C.ar    1  UNL1        0.0993
     12 O          63.7068   91.7844   16.3597 O.2     1  UNL1       -0.2826
     13 C          64.2600   90.8140   15.3586 C.2     1  UNL1        0.2406
@<TRIPOS>BOND
     1    12    13    2
     2    13     1    1
     3     1     2   ar
     4     2     3   ar
     5     3     4   ar
     6     4     6    1
     7     6     7   ar
     8     7     8   ar
     9     8     9   ar
    10     9    10   ar
    11    10    11   ar
    12     4     5   ar
    13     5     1   ar
    14    11     6   ar
@<TRIPOS>MOLECULE
*****
 13 14 0 0 0
SMALL
GASTEIGER

@<TRIPOS>ATOM
      1 C          63.5659   90.2534   12.5024 C.ar    1  UNL1        0.0716
      2 C          63.6593   91.2702   11.4035 C.ar    1  UNL1        0.0103
      3 C          62.9161   90.7373   10.2146 C.ar    1  UNL1        0.0071
      4 C          62.3632   89.3912   10.5787 C.ar    1  UNL1        0.0311
      5 S          62.7648   89.0922   11.9927 S.2     1  UNL1       -0.0836
      6 C          61.5513   88.5006    9.6856 C.ar    1  UNL1        0.0252
      7 C          61.9463   87.0658    9.4976 C.ar    1  UNL1        0.0036
      8 C          61.1344   86.1753    8.6045 C.ar    1  UNL1        0.0207
      9 C          59.9274   86.7195    7.8994 C.ar    1  UNL1        0.0989
     10 N          59.5324   88.1542    8.0874 N.ar    1  UNL1       -0.2423
     11 C          60.3443   89.0448    8.9805 C.ar    1  UNL1        0.0993
     12 O          63.5315   91.2716   14.8924 O.2     1  UNL1       -0.2826
     13 C          64.1678   90.3763   13.8709 C.2     1  UNL1        0.2406
@<TRIPOS>BOND
     1    12    13    2
     2    13     1    1
     3     1     2   ar
     4     2     3   ar
     5     3     4   ar
     6     4     6    1
     7     6     7   ar
     8     7     8   ar
     9     8     9   ar
    10     9    10   ar
    11    10    11   ar
    12     4     5   ar
    13     5     1   ar
    14    11     6   ar
@<TRIPOS>MOLECULE
*****
 13 14 0 0 0
SMALL
GASTEIGER

@<TRIPOS>ATOM
      1 C          63.7941   83.7398   12.6506 C.ar    1  UNL1        0.0716
      2 C          64.2489   83.2047   11.3251 C.ar    1  UNL1        0.0103
      3 C          63.5010   83.9348   10.2492 C.ar    1  UNL1        0.0071
      4 C          62.5840   84.9211   10.9098 C.ar    1  UNL1        0.0311
      5 S          62.7652   84.8006   12.3939 S.2     1  UNL1       -0.0836
      6 C          61.6498   85.8627   10.2091 C.ar    1  UNL1        0.0252
      7 C          61.4054   85.7191    8.7362 C.ar    1  UNL1        0.0036
      8 C          60.4713   86.6606    8.0356 C.ar    1  UNL1        0.0207
      9 C          59.7814   87.7457    8.8080 C.ar    1  UNL1        0.0989
     10 N          60.0257   87.8894   10.2810 N.ar    1  UNL1       -0.2423
     11 C          60.9599   86.9478   10.9815 C.ar    1  UNL1        0.0993
     12 O          63.3662   82.5399   14.9149 O.2     1  UNL1       -0.2826
     13 C          64.2826   83.2926   13.9965 C.2     1  UNL1        0.2406
@<TRIPOS>BOND
     1    12    13    2
     2    13     1    1
     3     1     2   ar
     4     2     3   ar
     5     3     4   ar
     6     4     6    1
     7     6     7   ar
     8     7     8   ar
     9     8     9   ar
    10     9    10   ar
    11    10    11   ar
    12     4     5   ar
    13     5     1   ar
    14    11     6   ar
@<TRIPOS>MOLECULE
*****
 13 14 0 0 0
SMALL
GASTEIGER

@<TRIPOS>ATOM
      1 C          60.5695   88.5068    9.9557 C.ar    1  UNL1        0.0716
      2 C          60.0125   87.6122    8.8883 C.ar    1  UNL1        0.0103
      3 C          60.6698   86.2702    9.0187 C.ar    1  UNL1        0.0071
      4 C          61.6330   86.3354   10.1667 C.ar    1  UNL1        0.0311
      5 S          61.5710   87.7177   10.7458 S.2     1  UNL1       -0.0836
      6 C          62.5051   85.2149   10.6506 C.ar    1  UNL1        0.0252
      7 C          63.2756   84.3856    9.6666 C.ar    1  UNL1        0.0036
      8 C          64.1477   83.2652   10.1505 C.ar    1  UNL1        0.0207
      9 C          64.2492   82.9742   11.6185 C.ar    1  UNL1        0.0989
     10 N          63.4786   83.8035   12.6025 N.ar    1  UNL1       -0.2423
     11 C          62.6066   84.9239   12.1186 C.ar    1  UNL1        0.0993
     12 O          59.4929   90.3313   11.4598 O.2     1  UNL1       -0.2826
     13 C          60.1914   89.9391   10.1917 C.2     1  UNL1        0.2406
@<TRIPOS>BOND
     1    12    13    2
     2    13     1    1
     3     1     2   ar
     4     2     3   ar
     5     3     4   ar
     6     4     6    1
     7     6     7   ar
     8     7     8   ar
     9     8     9   ar
    10     9    10   ar
    11    10    11   ar
    12     4     5   ar
    13     5     1   ar
    14    11     6   ar
@<TRIPOS>MOLECULE
*****
 13 14 0 0 0
SMALL
GASTEIGER

@<TRIPOS>ATOM
      1 C          60.7539   87.4114    9.2718 C.ar    1  UNL1        0.0716
      2 C          61.4359   88.2586   10.3049 C.ar    1  UNL1        0.0103
      3 C          62.3054   87.3639   11.1376 C.ar    1  UNL1        0.0071
      4 C          62.1608   85.9638   10.6192 C.ar    1  UNL1        0.0311
      5 S          61.2019   85.9931    9.4661 S.2     1  UNL1       -0.0836
      6 C          62.8536   84.7478   11.1592 C.ar    1  UNL1        0.0252
      7 C          63.5889   83.8286   10.2295 C.ar    1  UNL1        0.0036
      8 C          64.2815   82.6127   10.7695 C.ar    1  UNL1        0.0207
      9 C          64.2389   82.3159   12.2392 C.ar    1  UNL1        0.0989
     10 N          63.5036   83.2350   13.1689 N.ar    1  UNL1       -0.2423
     11 C          62.8109   84.4509   12.6289 C.ar    1  UNL1        0.0993
     12 O          58.5890   87.0743    7.8756 O.2     1  UNL1       -0.2826
     13 C          59.7926   87.8972    8.2278 C.2     1  UNL1        0.2406
@<TRIPOS>BOND
     1    12    13    2
     2    13     1    1
     3     1     2   ar
     4     2     3   ar
     5     3     4   ar
     6     4     6    1
     7     6     7   ar
     8     7     8   ar
     9     8     9   ar
    10     9    10   ar
    11    10    11   ar
    12     4     5   ar
    13     5     1   ar
    14    11     6   ar
@<TRIPOS>MOLECULE
*****
 13 14 0 0 0
SMALL
GASTEIGER

@<TRIPOS>ATOM
      1 C          62.1674   89.7121   11.2520 C.ar    1  UNL1        0.0716
      2 C          62.5805   90.5919   10.1094 C.ar    1  UNL1        0.0103
      3 C          63.6858   91.4855   10.5887 C.ar    1  UNL1        0.0071
      4 C          63.9558   91.1580   12.0275 C.ar    1  UNL1        0.0311
      5 S          63.0173   90.0620   12.4373 S.2     1  UNL1       -0.0836
      6 C          64.9838   91.8117   12.9026 C.ar    1  UNL1        0.0252
      7 C          65.2780   91.2502   14.2620 C.ar    1  UNL1        0.0036
      8 C          66.3060   91.9040   15.1371 C.ar    1  UNL1        0.0207
      9 C          67.0397   93.1193   14.6528 C.ar    1  UNL1        0.0989
     10 N          66.7455   93.6808   13.2934 N.ar    1  UNL1       -0.2423
     11 C          65.7176   93.0271   12.4183 C.ar    1  UNL1        0.0993
     12 O          59.9052   88.7788   12.1248 O.2     1  UNL1       -0.2826
     13 C          61.0928   88.6660   11.2155 C.2     1  UNL1        0.2406
@<TRIPOS>BOND
     1    12    13    2
     2    13     1    1
     3     1     2   ar
     4     2     3   ar
     5     3     4   ar
     6     4     6    1
     7     6     7   ar
     8     7     8   ar
     9     8     9   ar
    10     9    10   ar
    11    10    11   ar
    12     4     5   ar
    13     5     1   ar
    14    11     6   ar
@<TRIPOS>MOLECULE
*****
 13 14 0 0 0
SMALL
GASTEIGER

@<TRIPOS>ATOM
      1 C          63.1676   90.6221   11.8202 C.ar    1  UNL1        0.0716
      2 C          63.8495   91.5467   10.8558 C.ar    1  UNL1        0.0103
      3 C          65.0194   92.1690   11.5588 C.ar    1  UNL1        0.0071
      4 C          65.0605   91.6290   12.9576 C.ar    1  UNL1        0.0311
      5 S          63.9160   90.6730   13.1192 S.2     1  UNL1       -0.0836
      6 C          66.0690   91.9830   14.0101 C.ar    1  UNL1        0.0252
      7 C          67.5318   91.9797   13.6784 C.ar    1  UNL1        0.0036
      8 C          68.5403   92.3337   14.7308 C.ar    1  UNL1        0.0207
      9 C          68.0859   92.6909   16.1150 C.ar    1  UNL1        0.0989
     10 N          66.6231   92.6941   16.4467 N.ar    1  UNL1       -0.2423
     11 C          65.6146   92.3401   15.3943 C.ar    1  UNL1        0.0993
     12 O          60.9337   89.5584   12.6130 O.2     1  UNL1       -0.2826
     13 C          61.9508   89.7923   11.5356 C.2     1  UNL1        0.2406
@<TRIPOS>BOND
     1    12    13    2
     2    13     1    1
     3     1     2   ar
     4     2     3   ar
     5     3     4   ar
     6     4     6    1
     7     6     7   ar
     8     7     8   ar
     9     8     9   ar
    10     9    10   ar
    11    10    11   ar
    12     4     5   ar
    13     5     1   ar
    14    11     6   ar
