@<TRIPOS>MOLECULE
*****
 31 34 0 0 0
SMALL
GASTEIGER

@<TRIPOS>ATOM
      1 C          63.7121   89.3758   15.5014 C.ar    1  UNL1        0.0658
      2 C          64.3478   88.4945   14.4674 C.ar    1  UNL1        0.0190
      3 C          64.4130   87.0116   14.6835 C.ar    1  UNL1        0.0397
      4 C          63.8424   86.4100   15.9335 C.ar    1  UNL1        0.1559
      5 C          63.2066   87.2913   16.9675 C.ar    1  UNL1        0.0934
      6 CL         62.6361   86.6897   18.2174 Cl      1  UNL1       -0.0790
      7 C          63.1415   88.7742   16.7514 C.ar    1  UNL1        0.0303
      8 N          63.6469   90.8588   15.2853 N.pl3   1  UNL1       -0.2149
      9 H          63.1511   91.4271   15.9181 H       1  UNL1        0.1737
     10 O          65.6441   91.4175   14.8388 O.2     1  UNL1       -0.1499
     11 S          64.3371   91.4758   14.1050 S.O2    1  UNL1        0.0744
     12 O          63.0302   91.5341   13.3713 O.2     1  UNL1       -0.1499
     13 C          65.0272   92.0928   12.9248 C.ar    1  UNL1        0.1357
     14 C          64.6676   91.6591   11.5346 C.ar    1  UNL1        0.0219
     15 C          65.3577   92.2761   10.3543 C.ar    1  UNL1        0.0128
     16 C          66.4075   93.3267   10.5642 C.ar    1  UNL1        0.0586
     17 CL         67.0977   93.9437    9.3840 Cl      1  UNL1       -0.0822
     18 C          66.7672   93.7604   11.9544 C.ar    1  UNL1        0.0241
     19 C          66.0771   93.1434   13.1347 C.ar    1  UNL1        0.0773
     20 CL         66.4368   93.5770   14.5248 Cl      1  UNL1       -0.0808
     21 O          63.9076   84.9271   16.1495 O.3     1  UNL1       -0.4511
     22 C          63.5684   83.9902   15.0282 C.ar    1  UNL1        0.1644
     23 C          62.5284   82.9277   15.2274 C.ar    1  UNL1        0.1362
     24 N          62.1891   81.9908   14.1062 N.ar    1  UNL1       -0.2406
     25 C          62.8898   82.1164   12.7858 C.ar    1  UNL1        0.0815
     26 C          62.5505   81.1795   11.6646 C.ar    1  UNL1        0.0191
     27 C          63.2512   81.3051   10.3443 C.ar    1  UNL1        0.0015
     28 C          64.2912   82.3676   10.1452 C.ar    1  UNL1        0.0001
     29 C          64.6304   83.3044   11.2664 C.ar    1  UNL1        0.0016
     30 C          63.9298   83.1788   12.5867 C.ar    1  UNL1        0.0207
     31 C          64.2690   84.1158   13.7079 C.ar    1  UNL1        0.0406
@<TRIPOS>BOND
     1    10    11    2
     2    11    12    2
     3    11     8    1
     4     8     1    1
     5     1     2   ar
     6     2     3   ar
     7     3     4   ar
     8     4    21    1
     9    21    22    1
    10    22    23   ar
    11    23    24   ar
    12    24    25   ar
    13    25    26   ar
    14    26    27   ar
    15    27    28   ar
    16    28    29   ar
    17    29    30   ar
    18    30    31   ar
    19     4     5   ar
    20     5     6    1
    21     5     7   ar
    22    11    13    1
    23    13    14   ar
    24    14    15   ar
    25    15    16   ar
    26    16    17    1
    27    16    18   ar
    28    18    19   ar
    29    19    20    1
    30     7     1   ar
    31    19    13   ar
    32    31    22   ar
    33    30    25   ar
    34     8     9    1
@<TRIPOS>MOLECULE
*****
 31 34 0 0 0
SMALL
GASTEIGER

@<TRIPOS>ATOM
      1 C          63.6803   89.3781   15.5259 C.ar    1  UNL1        0.0658
      2 C          64.3234   88.5079   14.4871 C.ar    1  UNL1        0.0190
      3 C          64.4120   87.0258   14.7005 C.ar    1  UNL1        0.0397
      4 C          63.8576   86.4139   15.9527 C.ar    1  UNL1        0.1559
      5 C          63.2145   87.2840   16.9916 C.ar    1  UNL1        0.0934
      6 CL         62.6600   86.6721   18.2438 Cl      1  UNL1       -0.0790
      7 C          63.1258   88.7661   16.7782 C.ar    1  UNL1        0.0303
      8 N          63.5916   90.8601   15.3125 N.pl3   1  UNL1       -0.2149
      9 H          63.0841   91.4190   15.9445 H       1  UNL1        0.1737
     10 O          62.9799   91.4904   13.3815 O.2     1  UNL1       -0.1499
     11 S          64.2762   91.4908   14.1361 S.O2    1  UNL1        0.0744
     12 O          65.5725   91.4912   14.8908 O.2     1  UNL1       -0.1499
     13 C          64.9608   92.1214   12.9599 C.ar    1  UNL1        0.1357
     14 C          65.9986   93.1826   13.1764 C.ar    1  UNL1        0.0219
     15 C          66.6832   93.8132   12.0001 C.ar    1  UNL1        0.0128
     16 C          66.3300   93.3827   10.6073 C.ar    1  UNL1        0.0586
     17 CL         67.0146   94.0133    9.4311 Cl      1  UNL1       -0.0822
     18 C          65.2922   92.3215   10.3908 C.ar    1  UNL1        0.0241
     19 C          64.6076   91.6909   11.5671 C.ar    1  UNL1        0.0773
     20 CL         63.5698   90.6297   11.3505 Cl      1  UNL1       -0.0808
     21 O          63.9463   84.9318   16.1661 O.3     1  UNL1       -0.4511
     22 C          63.5925   83.9912   15.0524 C.ar    1  UNL1        0.1644
     23 C          62.5593   82.9258   15.2701 C.ar    1  UNL1        0.1362
     24 N          62.2056   81.9852   14.1565 N.ar    1  UNL1       -0.2406
     25 C          62.8851   82.1101   12.8250 C.ar    1  UNL1        0.0815
     26 C          62.5313   81.1695   11.7114 C.ar    1  UNL1        0.0191
     27 C          63.2108   81.2944   10.3800 C.ar    1  UNL1        0.0015
     28 C          64.2440   82.3598   10.1622 C.ar    1  UNL1        0.0001
     29 C          64.5977   83.3003   11.2758 C.ar    1  UNL1        0.0016
     30 C          63.9183   83.1755   12.6072 C.ar    1  UNL1        0.0207
     31 C          64.2720   84.1160   13.7209 C.ar    1  UNL1        0.0406
@<TRIPOS>BOND
     1    10    11    2
     2    11    12    2
     3    11     8    1
     4     8     1    1
     5     1     2   ar
     6     2     3   ar
     7     3     4   ar
     8     4    21    1
     9    21    22    1
    10    22    23   ar
    11    23    24   ar
    12    24    25   ar
    13    25    26   ar
    14    26    27   ar
    15    27    28   ar
    16    28    29   ar
    17    29    30   ar
    18    30    31   ar
    19     4     5   ar
    20     5     6    1
    21     5     7   ar
    22    11    13    1
    23    13    14   ar
    24    14    15   ar
    25    15    16   ar
    26    16    17    1
    27    16    18   ar
    28    18    19   ar
    29    19    20    1
    30     7     1   ar
    31    19    13   ar
    32    31    22   ar
    33    30    25   ar
    34     8     9    1
@<TRIPOS>MOLECULE
*****
 31 34 0 0 0
SMALL
GASTEIGER

@<TRIPOS>ATOM
      1 C          62.3424   89.4271   11.9541 C.ar    1  UNL1        0.0658
      2 C          62.7324   90.5758   11.0719 C.ar    1  UNL1        0.0190
      3 C          63.8912   91.4507   11.4482 C.ar    1  UNL1        0.0397
      4 C          64.6601   91.1769   12.7067 C.ar    1  UNL1        0.1559
      5 C          64.2702   90.0281   13.5889 C.ar    1  UNL1        0.0934
      6 CL         65.0391   89.7543   14.8474 Cl      1  UNL1       -0.0790
      7 C          63.1113   89.1532   13.2127 C.ar    1  UNL1        0.0303
      8 N          61.1836   88.5521   11.5779 N.pl3   1  UNL1       -0.2149
      9 H          60.3520   88.5833   12.1040 H       1  UNL1        0.1737
     10 O          61.2602   88.8091    9.4735 O.2     1  UNL1       -0.1499
     11 S          61.2917   87.6298   10.3999 S.O2    1  UNL1        0.0744
     12 O          61.3231   86.4505   11.3262 O.2     1  UNL1       -0.1499
     13 C          61.3997   86.7074    9.2220 C.ar    1  UNL1        0.1357
     14 C          62.6920   86.0002    8.9392 C.ar    1  UNL1        0.0219
     15 C          62.8001   85.0778    7.7613 C.ar    1  UNL1        0.0128
     16 C          61.6160   84.8626    6.8661 C.ar    1  UNL1        0.0586
     17 CL         61.7240   83.9402    5.6882 Cl      1  UNL1       -0.0822
     18 C          60.3237   85.5698    7.1488 C.ar    1  UNL1        0.0241
     19 C          60.2156   86.4922    8.3267 C.ar    1  UNL1        0.0773
     20 CL         58.9233   87.1994    8.6094 Cl      1  UNL1       -0.0808
     21 O          65.8190   92.0518   13.0830 O.3     1  UNL1       -0.4511
     22 C          66.1538   93.2529   12.2490 C.ar    1  UNL1        0.1644
     23 C          66.1203   94.6227   12.8593 C.ar    1  UNL1        0.1362
     24 N          66.4551   95.8237   12.0254 N.ar    1  UNL1       -0.2406
     25 C          66.8234   95.6549   10.5811 C.ar    1  UNL1        0.0815
     26 C          67.1582   96.8559    9.7472 C.ar    1  UNL1        0.0191
     27 C          67.5264   96.6871    8.3029 C.ar    1  UNL1        0.0015
     28 C          67.5599   95.3173    7.6926 C.ar    1  UNL1        0.0001
     29 C          67.2252   94.1163    8.5265 C.ar    1  UNL1        0.0016
     30 C          66.8569   94.2851    9.9707 C.ar    1  UNL1        0.0207
     31 C          66.5221   93.0841   10.8047 C.ar    1  UNL1        0.0406
@<TRIPOS>BOND
     1    10    11    2
     2    11    12    2
     3    11     8    1
     4     8     1    1
     5     1     2   ar
     6     2     3   ar
     7     3     4   ar
     8     4    21    1
     9    21    22    1
    10    22    23   ar
    11    23    24   ar
    12    24    25   ar
    13    25    26   ar
    14    26    27   ar
    15    27    28   ar
    16    28    29   ar
    17    29    30   ar
    18    30    31   ar
    19     4     5   ar
    20     5     6    1
    21     5     7   ar
    22    11    13    1
    23    13    14   ar
    24    14    15   ar
    25    15    16   ar
    26    16    17    1
    27    16    18   ar
    28    18    19   ar
    29    19    20    1
    30     7     1   ar
    31    19    13   ar
    32    31    22   ar
    33    30    25   ar
    34     8     9    1
@<TRIPOS>MOLECULE
*****
 31 34 0 0 0
SMALL
GASTEIGER

@<TRIPOS>ATOM
      1 C          63.6986   84.8398   15.7513 C.ar    1  UNL1        0.0658
      2 C          64.2631   85.5741   14.5714 C.ar    1  UNL1        0.0190
      3 C          64.2818   87.0739   14.5603 C.ar    1  UNL1        0.0397
      4 C          63.7360   87.8395   15.7290 C.ar    1  UNL1        0.1559
      5 C          63.1715   87.1052   16.9090 C.ar    1  UNL1        0.0934
      6 CL         62.6257   87.8708   18.0777 Cl      1  UNL1       -0.0790
      7 C          63.1527   85.6054   16.9201 C.ar    1  UNL1        0.0303
      8 N          63.6798   83.3400   15.7624 N.pl3   1  UNL1       -0.2149
      9 H          63.7959   82.8525   16.6098 H       1  UNL1        0.1737
     10 O          64.9042   82.1041   14.5484 O.2     1  UNL1       -0.1499
     11 S          63.4842   82.5828   14.4823 S.O2    1  UNL1        0.0744
     12 O          62.0642   83.0616   14.4162 O.2     1  UNL1       -0.1499
     13 C          63.2885   81.8258   13.2023 C.ar    1  UNL1        0.1357
     14 C          62.7173   80.4390   13.2309 C.ar    1  UNL1        0.0219
     15 C          62.5217   79.6820   11.9508 C.ar    1  UNL1        0.0128
     16 C          62.8972   80.3115   10.6422 C.ar    1  UNL1        0.0586
     17 CL         62.7016   79.5545    9.3621 Cl      1  UNL1       -0.0822
     18 C          63.4684   81.6982   10.6135 C.ar    1  UNL1        0.0241
     19 C          63.6641   82.4553   11.8936 C.ar    1  UNL1        0.0773
     20 CL         64.2353   83.8420   11.8650 Cl      1  UNL1       -0.0808
     21 O          63.7548   89.3393   15.7179 O.3     1  UNL1       -0.4511
     22 C          63.9670   90.0772   14.4292 C.ar    1  UNL1        0.1644
     23 C          62.9341   90.0035   13.3440 C.ar    1  UNL1        0.1362
     24 N          63.1463   90.7413   12.0554 N.ar    1  UNL1       -0.2406
     25 C          64.3913   91.5529   11.8520 C.ar    1  UNL1        0.0815
     26 C          64.6035   92.2907   10.5633 C.ar    1  UNL1        0.0191
     27 C          65.8485   93.1022   10.3600 C.ar    1  UNL1        0.0015
     28 C          66.8813   93.1758   11.4452 C.ar    1  UNL1        0.0001
     29 C          66.6692   92.4380   12.7338 C.ar    1  UNL1        0.0016
     30 C          65.4242   91.6265   12.9372 C.ar    1  UNL1        0.0207
     31 C          65.2120   90.8887   14.2259 C.ar    1  UNL1        0.0406
@<TRIPOS>BOND
     1    10    11    2
     2    11    12    2
     3    11     8    1
     4     8     1    1
     5     1     2   ar
     6     2     3   ar
     7     3     4   ar
     8     4    21    1
     9    21    22    1
    10    22    23   ar
    11    23    24   ar
    12    24    25   ar
    13    25    26   ar
    14    26    27   ar
    15    27    28   ar
    16    28    29   ar
    17    29    30   ar
    18    30    31   ar
    19     4     5   ar
    20     5     6    1
    21     5     7   ar
    22    11    13    1
    23    13    14   ar
    24    14    15   ar
    25    15    16   ar
    26    16    17    1
    27    16    18   ar
    28    18    19   ar
    29    19    20    1
    30     7     1   ar
    31    19    13   ar
    32    31    22   ar
    33    30    25   ar
    34     8     9    1
@<TRIPOS>MOLECULE
*****
 31 34 0 0 0
SMALL
GASTEIGER

@<TRIPOS>ATOM
      1 C          64.3768   91.0543   12.6683 C.ar    1  UNL1        0.0658
      2 C          64.4184   89.7666   13.4362 C.ar    1  UNL1        0.0190
      3 C          63.4885   88.6468   13.0738 C.ar    1  UNL1        0.0397
      4 C          62.5170   88.8148   11.9433 C.ar    1  UNL1        0.1559
      5 C          62.4754   90.1026   11.1753 C.ar    1  UNL1        0.0934
      6 CL         61.5039   90.2706   10.0448 Cl      1  UNL1       -0.0790
      7 C          63.4053   91.2224   11.5377 C.ar    1  UNL1        0.0303
      8 N          65.3067   92.1741   13.0307 N.pl3   1  UNL1       -0.2149
      9 H          65.5914   92.2946   13.9654 H       1  UNL1        0.1737
     10 O          64.9883   92.3792   10.9434 O.2     1  UNL1       -0.1499
     11 S          65.8028   93.1105   11.9690 S.O2    1  UNL1        0.0744
     12 O          66.6172   93.8418   12.9946 O.2     1  UNL1       -0.1499
     13 C          66.2989   94.0468   10.9074 C.ar    1  UNL1        0.1357
     14 C          65.7216   95.4268   10.7950 C.ar    1  UNL1        0.0219
     15 C          66.2177   96.3631    9.7334 C.ar    1  UNL1        0.0128
     16 C          67.2911   95.9196    8.7841 C.ar    1  UNL1        0.0586
     17 CL         67.7872   96.8559    7.7224 Cl      1  UNL1       -0.0822
     18 C          67.8683   94.5397    8.8964 C.ar    1  UNL1        0.0241
     19 C          67.3722   93.6033    9.9581 C.ar    1  UNL1        0.0773
     20 CL         67.9495   92.2234   10.0704 Cl      1  UNL1       -0.0808
     21 O          61.5871   87.6950   11.5808 O.3     1  UNL1       -0.4511
     22 C          62.1304   86.3182   11.3366 C.ar    1  UNL1        0.1644
     23 C          62.5296   85.9044    9.9512 C.ar    1  UNL1        0.1362
     24 N          63.0728   84.5277    9.7070 N.ar    1  UNL1       -0.2406
     25 C          63.2169   83.5649   10.8481 C.ar    1  UNL1        0.0815
     26 C          63.7602   82.1882   10.6039 C.ar    1  UNL1        0.0191
     27 C          63.9042   81.2255   11.7451 C.ar    1  UNL1        0.0015
     28 C          63.5050   81.6393   13.1305 C.ar    1  UNL1        0.0001
     29 C          62.9618   83.0160   13.3747 C.ar    1  UNL1        0.0016
     30 C          62.8177   83.9787   12.2336 C.ar    1  UNL1        0.0207
     31 C          62.2745   85.3555   12.4778 C.ar    1  UNL1        0.0406
@<TRIPOS>BOND
     1    10    11    2
     2    11    12    2
     3    11     8    1
     4     8     1    1
     5     1     2   ar
     6     2     3   ar
     7     3     4   ar
     8     4    21    1
     9    21    22    1
    10    22    23   ar
    11    23    24   ar
    12    24    25   ar
    13    25    26   ar
    14    26    27   ar
    15    27    28   ar
    16    28    29   ar
    17    29    30   ar
    18    30    31   ar
    19     4     5   ar
    20     5     6    1
    21     5     7   ar
    22    11    13    1
    23    13    14   ar
    24    14    15   ar
    25    15    16   ar
    26    16    17    1
    27    16    18   ar
    28    18    19   ar
    29    19    20    1
    30     7     1   ar
    31    19    13   ar
    32    31    22   ar
    33    30    25   ar
    34     8     9    1
@<TRIPOS>MOLECULE
*****
 31 34 0 0 0
SMALL
GASTEIGER

@<TRIPOS>ATOM
      1 C          63.5653   85.7076   15.8327 C.ar    1  UNL1        0.0658
      2 C          63.1797   86.5380   17.0209 C.ar    1  UNL1        0.0190
      3 C          63.0604   88.0273   16.8881 C.ar    1  UNL1        0.0397
      4 C          63.3267   88.6863   15.5672 C.ar    1  UNL1        0.1559
      5 C          63.7123   87.8558   14.3789 C.ar    1  UNL1        0.0934
      6 CL         63.9785   88.5147   13.0580 Cl      1  UNL1       -0.0790
      7 C          63.8316   86.3665   14.5117 C.ar    1  UNL1        0.0303
      8 N          63.6846   84.2182   15.9655 N.pl3   1  UNL1       -0.2149
      9 H          63.8884   83.8168   16.8411 H       1  UNL1        0.1737
     10 O          64.9810   83.2151   14.6190 O.2     1  UNL1       -0.1499
     11 S          63.4933   83.3404   14.7642 S.O2    1  UNL1        0.0744
     12 O          62.0057   83.4658   14.9095 O.2     1  UNL1       -0.1499
     13 C          63.3021   82.4627   13.5630 C.ar    1  UNL1        0.1357
     14 C          62.9744   81.0097   13.7404 C.ar    1  UNL1        0.0219
     15 C          62.7831   80.1319   12.5392 C.ar    1  UNL1        0.0128
     16 C          62.9196   80.7071   11.1606 C.ar    1  UNL1        0.0586
     17 CL         62.7283   79.8294    9.9594 Cl      1  UNL1       -0.0822
     18 C          63.2473   82.1601   10.9832 C.ar    1  UNL1        0.0241
     19 C          63.4385   83.0379   12.1844 C.ar    1  UNL1        0.0773
     20 CL         63.7662   84.4909   12.0071 Cl      1  UNL1       -0.0808
     21 O          63.2074   90.1756   15.4344 O.3     1  UNL1       -0.4511
     22 C          64.4139   91.0451   15.6305 C.ar    1  UNL1        0.1644
     23 C          64.4397   92.0525   16.7416 C.ar    1  UNL1        0.1362
     24 N          65.6461   92.9220   16.9378 N.ar    1  UNL1       -0.2406
     25 C          66.8268   92.7841   16.0228 C.ar    1  UNL1        0.0815
     26 C          68.0332   93.6535   16.2190 C.ar    1  UNL1        0.0191
     27 C          69.2138   93.5156   15.3041 C.ar    1  UNL1        0.0015
     28 C          69.1880   92.5082   14.1930 C.ar    1  UNL1        0.0001
     29 C          67.9816   91.6388   13.9968 C.ar    1  UNL1        0.0016
     30 C          66.8010   91.7767   14.9117 C.ar    1  UNL1        0.0207
     31 C          65.5945   90.9072   14.7156 C.ar    1  UNL1        0.0406
@<TRIPOS>BOND
     1    10    11    2
     2    11    12    2
     3    11     8    1
     4     8     1    1
     5     1     2   ar
     6     2     3   ar
     7     3     4   ar
     8     4    21    1
     9    21    22    1
    10    22    23   ar
    11    23    24   ar
    12    24    25   ar
    13    25    26   ar
    14    26    27   ar
    15    27    28   ar
    16    28    29   ar
    17    29    30   ar
    18    30    31   ar
    19     4     5   ar
    20     5     6    1
    21     5     7   ar
    22    11    13    1
    23    13    14   ar
    24    14    15   ar
    25    15    16   ar
    26    16    17    1
    27    16    18   ar
    28    18    19   ar
    29    19    20    1
    30     7     1   ar
    31    19    13   ar
    32    31    22   ar
    33    30    25   ar
    34     8     9    1
@<TRIPOS>MOLECULE
*****
 31 34 0 0 0
SMALL
GASTEIGER

@<TRIPOS>ATOM
      1 C          60.9255   88.5773   10.5909 C.ar    1  UNL1        0.0658
      2 C          60.4765   89.9348   10.1375 C.ar    1  UNL1        0.0190
      3 C          59.7479   90.0877    8.8353 C.ar    1  UNL1        0.0397
      4 C          59.4682   88.8831    7.9865 C.ar    1  UNL1        0.1559
      5 C          59.9171   87.5255    8.4398 C.ar    1  UNL1        0.0934
      6 CL         59.6374   86.3208    7.5910 Cl      1  UNL1       -0.0790
      7 C          60.6458   87.3726    9.7420 C.ar    1  UNL1        0.0303
      8 N          61.6541   88.4244   11.8931 N.pl3   1  UNL1       -0.2149
      9 H          61.4328   87.6786   12.4963 H       1  UNL1        0.1737
     10 O          63.4952   89.0480   11.0435 O.2     1  UNL1       -0.1499
     11 S          62.7199   89.4080   12.2761 S.O2    1  UNL1        0.0744
     12 O          61.9446   89.7680   13.5087 O.2     1  UNL1       -0.1499
     13 C          63.7856   90.3916   12.6592 C.ar    1  UNL1        0.1357
     14 C          64.4832   90.2648   13.9811 C.ar    1  UNL1        0.0219
     15 C          65.5489   91.2483   14.3641 C.ar    1  UNL1        0.0128
     16 C          65.9172   92.3587   13.4253 C.ar    1  UNL1        0.0586
     17 CL         66.9829   93.3423   13.8084 Cl      1  UNL1       -0.0822
     18 C          65.2197   92.4856   12.1035 C.ar    1  UNL1        0.0241
     19 C          64.1539   91.5020   11.7204 C.ar    1  UNL1        0.0773
     20 CL         63.4564   91.6289   10.3985 Cl      1  UNL1       -0.0808
     21 O          58.7396   89.0360    6.6843 O.3     1  UNL1       -0.4511
     22 C          59.1250   90.1300    5.7331 C.ar    1  UNL1        0.1644
     23 C          58.1150   91.1627    5.3289 C.ar    1  UNL1        0.1362
     24 N          58.5004   92.2567    4.3778 N.ar    1  UNL1       -0.2406
     25 C          59.8958   92.3181    3.8309 C.ar    1  UNL1        0.0815
     26 C          60.2812   93.4121    2.8798 C.ar    1  UNL1        0.0191
     27 C          61.6766   93.4734    2.3330 C.ar    1  UNL1        0.0015
     28 C          62.6866   92.4407    2.7372 C.ar    1  UNL1        0.0001
     29 C          62.3012   91.3467    3.6883 C.ar    1  UNL1        0.0016
     30 C          60.9059   91.2854    4.2352 C.ar    1  UNL1        0.0207
     31 C          60.5204   90.1913    5.1863 C.ar    1  UNL1        0.0406
@<TRIPOS>BOND
     1    10    11    2
     2    11    12    2
     3    11     8    1
     4     8     1    1
     5     1     2   ar
     6     2     3   ar
     7     3     4   ar
     8     4    21    1
     9    21    22    1
    10    22    23   ar
    11    23    24   ar
    12    24    25   ar
    13    25    26   ar
    14    26    27   ar
    15    27    28   ar
    16    28    29   ar
    17    29    30   ar
    18    30    31   ar
    19     4     5   ar
    20     5     6    1
    21     5     7   ar
    22    11    13    1
    23    13    14   ar
    24    14    15   ar
    25    15    16   ar
    26    16    17    1
    27    16    18   ar
    28    18    19   ar
    29    19    20    1
    30     7     1   ar
    31    19    13   ar
    32    31    22   ar
    33    30    25   ar
    34     8     9    1
@<TRIPOS>MOLECULE
*****
 31 34 0 0 0
SMALL
GASTEIGER

@<TRIPOS>ATOM
      1 C          60.4949   92.2553    3.6047 C.ar    1  UNL1        0.0658
      2 C          61.2903   91.2936    4.4368 C.ar    1  UNL1        0.0190
      3 C          60.5991   90.4250    5.4457 C.ar    1  UNL1        0.0397
      4 C          59.1125   90.5182    5.6226 C.ar    1  UNL1        0.1559
      5 C          58.3170   91.4800    4.7905 C.ar    1  UNL1        0.0934
      6 CL         56.8305   91.5732    4.9674 Cl      1  UNL1       -0.0790
      7 C          59.0082   92.3485    3.7816 C.ar    1  UNL1        0.0303
      8 N          61.1861   93.1238    2.5958 N.pl3   1  UNL1       -0.2149
      9 H          61.9809   93.6434    2.8557 H       1  UNL1        0.1737
     10 O          60.0090   94.5116    1.5056 O.2     1  UNL1       -0.1499
     11 S          60.6663   93.2006    1.1908 S.O2    1  UNL1        0.0744
     12 O          61.3236   91.8896    0.8759 O.2     1  UNL1       -0.1499
     13 C          60.1465   93.2774   -0.2142 C.ar    1  UNL1        0.1357
     14 C          58.7809   92.7482   -0.5387 C.ar    1  UNL1        0.0219
     15 C          58.2612   92.8250   -1.9436 C.ar    1  UNL1        0.0128
     16 C          59.1069   93.4310   -3.0241 C.ar    1  UNL1        0.0586
     17 CL         58.5871   93.5078   -4.4290 Cl      1  UNL1       -0.0822
     18 C          60.4724   93.9602   -2.6997 C.ar    1  UNL1        0.0241
     19 C          60.9922   93.8834   -1.2947 C.ar    1  UNL1        0.0773
     20 CL         62.3577   94.4126   -0.9703 Cl      1  UNL1       -0.0808
     21 O          58.4214   89.6497    6.6315 O.3     1  UNL1       -0.4511
     22 C          59.2230   88.7290    7.5032 C.ar    1  UNL1        0.1644
     23 C          59.1707   87.2471    7.2766 C.ar    1  UNL1        0.1362
     24 N          59.9723   86.3264    8.1482 N.ar    1  UNL1       -0.2406
     25 C          60.8263   86.8876    9.2464 C.ar    1  UNL1        0.0815
     26 C          61.6279   85.9669   10.1179 C.ar    1  UNL1        0.0191
     27 C          62.4818   86.5280   11.2161 C.ar    1  UNL1        0.0015
     28 C          62.5341   88.0099   11.4426 C.ar    1  UNL1        0.0001
     29 C          61.7325   88.9306   10.5710 C.ar    1  UNL1        0.0016
     30 C          60.8786   88.3694    9.4729 C.ar    1  UNL1        0.0207
     31 C          60.0769   89.2902    8.6013 C.ar    1  UNL1        0.0406
@<TRIPOS>BOND
     1    10    11    2
     2    11    12    2
     3    11     8    1
     4     8     1    1
     5     1     2   ar
     6     2     3   ar
     7     3     4   ar
     8     4    21    1
     9    21    22    1
    10    22    23   ar
    11    23    24   ar
    12    24    25   ar
    13    25    26   ar
    14    26    27   ar
    15    27    28   ar
    16    28    29   ar
    17    29    30   ar
    18    30    31   ar
    19     4     5   ar
    20     5     6    1
    21     5     7   ar
    22    11    13    1
    23    13    14   ar
    24    14    15   ar
    25    15    16   ar
    26    16    17    1
    27    16    18   ar
    28    18    19   ar
    29    19    20    1
    30     7     1   ar
    31    19    13   ar
    32    31    22   ar
    33    30    25   ar
    34     8     9    1
@<TRIPOS>MOLECULE
*****
 31 34 0 0 0
SMALL
GASTEIGER

@<TRIPOS>ATOM
      1 C          63.7156   85.8910   14.1491 C.ar    1  UNL1        0.0658
      2 C          64.3461   87.0108   14.9226 C.ar    1  UNL1        0.0190
      3 C          64.3319   88.4052   14.3700 C.ar    1  UNL1        0.0397
      4 C          63.6871   88.6798   13.0438 C.ar    1  UNL1        0.1559
      5 C          63.0565   87.5600   12.2702 C.ar    1  UNL1        0.0934
      6 CL         62.4117   87.8346   10.9440 Cl      1  UNL1       -0.0790
      7 C          63.0707   86.1656   12.8228 C.ar    1  UNL1        0.0303
      8 N          63.7298   84.4965   14.7017 N.pl3   1  UNL1       -0.2149
      9 H          63.8834   84.3495   15.6630 H       1  UNL1        0.1737
     10 O          62.0469   83.3442   14.1187 O.2     1  UNL1       -0.1499
     11 S          63.5102   83.3261   13.7896 S.O2    1  UNL1        0.0744
     12 O          64.9735   83.3079   13.4605 O.2     1  UNL1       -0.1499
     13 C          63.2905   82.1556   12.8776 C.ar    1  UNL1        0.1357
     14 C          62.8984   80.8244   13.4469 C.ar    1  UNL1        0.0219
     15 C          62.6788   79.6540   12.5349 C.ar    1  UNL1        0.0128
     16 C          62.8513   79.8147   11.0535 C.ar    1  UNL1        0.0586
     17 CL         62.6317   78.6443   10.1415 Cl      1  UNL1       -0.0822
     18 C          63.2434   81.1459   10.4842 C.ar    1  UNL1        0.0241
     19 C          63.4631   82.3164   11.3962 C.ar    1  UNL1        0.0773
     20 CL         63.8552   83.6475   10.8269 Cl      1  UNL1       -0.0808
     21 O          63.6728   90.0742   12.4912 O.3     1  UNL1       -0.4511
     22 C          64.6494   91.0927   13.0002 C.ar    1  UNL1        0.1644
     23 C          64.7954   92.4092   12.2962 C.ar    1  UNL1        0.1362
     24 N          65.7720   93.4276   12.8051 N.ar    1  UNL1       -0.2406
     25 C          66.6026   93.1296   14.0181 C.ar    1  UNL1        0.0815
     26 C          67.5792   94.1481   14.5269 C.ar    1  UNL1        0.0191
     27 C          68.4098   93.8501   15.7399 C.ar    1  UNL1        0.0015
     28 C          68.2638   92.5336   16.4439 C.ar    1  UNL1        0.0001
     29 C          67.2873   91.5152   15.9350 C.ar    1  UNL1        0.0016
     30 C          66.4567   91.8132   14.7221 C.ar    1  UNL1        0.0207
     31 C          65.4800   90.7947   14.2131 C.ar    1  UNL1        0.0406
@<TRIPOS>BOND
     1    10    11    2
     2    11    12    2
     3    11     8    1
     4     8     1    1
     5     1     2   ar
     6     2     3   ar
     7     3     4   ar
     8     4    21    1
     9    21    22    1
    10    22    23   ar
    11    23    24   ar
    12    24    25   ar
    13    25    26   ar
    14    26    27   ar
    15    27    28   ar
    16    28    29   ar
    17    29    30   ar
    18    30    31   ar
    19     4     5   ar
    20     5     6    1
    21     5     7   ar
    22    11    13    1
    23    13    14   ar
    24    14    15   ar
    25    15    16   ar
    26    16    17    1
    27    16    18   ar
    28    18    19   ar
    29    19    20    1
    30     7     1   ar
    31    19    13   ar
    32    31    22   ar
    33    30    25   ar
    34     8     9    1
