@<TRIPOS>MOLECULE
*****
 31 34 0 0 0
SMALL
GASTEIGER

@<TRIPOS>ATOM
      1 C          59.2173   88.9855   11.9770 C.3     1  UNL1        0.1383
      2 N          60.5562   89.6610   11.9408 N.ar    1  UNL1       -0.2455
      3 C          61.3833   89.7539   13.1887 C.ar    1  UNL1        0.2816
      4 O          60.8716   89.1714   14.4727 O.2     1  UNL1       -0.2652
      5 C          62.7222   90.4292   13.1525 C.ar    1  UNL1        0.1349
      6 C          63.2339   91.0117   11.8684 C.ar    1  UNL1        0.0966
      7 C          64.5814   91.6136   12.1369 C.ar    1  UNL1        0.1156
      8 C          64.9024   91.4031   13.5870 C.ar    1  UNL1        0.1240
      9 N          63.7533   90.6711   14.2146 N.ar    1  UNL1       -0.3063
     10 N          62.4068   90.9188   10.6205 N.ar    1  UNL1       -0.2770
     11 C          62.9185   91.5013    9.3364 C.3     1  UNL1        0.1351
     12 C          61.0679   90.2434   10.6568 C.ar    1  UNL1        0.3340
     13 O          60.2407   90.1505    9.4088 O.2     1  UNL1       -0.2462
     14 N          66.1529   91.8467   14.2866 N.pl3   1  UNL1       -0.2926
     15 C          66.0738   92.4296   15.6664 C.3     1  UNL1        0.0922
     16 C          67.3244   92.8732   16.3659 C.3     1  UNL1        0.0229
     17 C          68.6540   92.7338   15.6857 C.3     1  UNL1        0.0190
     18 C          68.7331   92.1509   14.3059 C.3     1  UNL1        0.0709
     19 N          70.0627   92.0114   13.6256 N.3     1  UNL1       -0.3208
     20 C          67.4825   91.7073   13.6064 C.3     1  UNL1        0.1075
     21 H          69.9304   91.5999   12.7018 H       1  UNL1        0.1189
     22 H          70.6681   91.4087   14.1828 H       1  UNL1        0.1189
     23 C          65.4545   92.3047   11.1319 C.1     1  UNL1        0.1047
     24 N          66.3276   92.9957   10.1268 N.1     1  UNL1       -0.1907
     25 C          63.6531   90.2542   15.6520 C.3     1  UNL1        0.1341
     26 C          63.6082   88.7981   16.0092 C.ar    1  UNL1        0.0004
     27 C          64.2183   87.7813   15.0904 C.ar    1  UNL1       -0.0024
     28 C          64.1734   86.3252   15.4476 C.ar    1  UNL1       -0.0003
     29 C          63.5184   85.8857   16.7236 C.ar    1  UNL1       -0.0000
     30 C          62.9084   86.9024   17.6423 C.ar    1  UNL1       -0.0003
     31 C          62.9533   88.3586   17.2852 C.ar    1  UNL1       -0.0024
@<TRIPOS>BOND
     1     1     2    1
     2     2     3   ar
     3     3     4    2
     4     3     5   ar
     5     5     6   ar
     6     6     7   ar
     7     7    23    1
     8    23    24    3
     9     7     8   ar
    10     8    14    1
    11    14    15    1
    12    15    16    1
    13    16    17    1
    14    17    18    1
    15    18    19    1
    16    18    20    1
    17     8     9   ar
    18     9    25    1
    19    25    26    1
    20    26    27   ar
    21    27    28   ar
    22    28    29   ar
    23    29    30   ar
    24    30    31   ar
    25     6    10   ar
    26    10    11    1
    27    10    12   ar
    28    12    13    2
    29    12     2   ar
    30     9     5   ar
    31    31    26   ar
    32    20    14    1
    33    19    21    1
    34    19    22    1
@<TRIPOS>MOLECULE
*****
 31 34 0 0 0
SMALL
GASTEIGER

@<TRIPOS>ATOM
      1 C          60.7838   88.6220    8.4124 C.3     1  UNL1        0.1383
      2 N          61.5858   88.6277    9.6800 N.ar    1  UNL1       -0.2455
      3 C          62.2725   89.8839   10.1274 C.ar    1  UNL1        0.2816
      4 O          62.1573   91.1345    9.3071 O.2     1  UNL1       -0.2652
      5 C          63.0745   89.8897   11.3949 C.ar    1  UNL1        0.1349
      6 C          63.1898   88.6391   12.2152 C.ar    1  UNL1        0.0966
      7 C          64.0429   88.9456   13.4103 C.ar    1  UNL1        0.1156
      8 C          64.4548   90.3856   13.3287 C.ar    1  UNL1        0.1240
      9 N          63.8564   90.9691   12.0831 N.ar    1  UNL1       -0.3063
     10 N          62.5031   87.3828   11.7678 N.ar    1  UNL1       -0.2770
     11 C          62.6183   86.1321   12.5880 C.3     1  UNL1        0.1351
     12 C          61.7011   87.3771   10.5002 C.ar    1  UNL1        0.3340
     13 O          61.0143   86.1208   10.0528 O.2     1  UNL1       -0.2462
     14 N          65.3143   91.1142   14.3188 N.pl3   1  UNL1       -0.2926
     15 C          64.7218   91.6103   15.6044 C.3     1  UNL1        0.0922
     16 C          65.5814   92.3389   16.5945 C.3     1  UNL1        0.0229
     17 C          67.0335   92.5715   16.2990 C.3     1  UNL1        0.0190
     18 C          67.6260   92.0754   15.0134 C.3     1  UNL1        0.0709
     19 N          69.0781   92.3079   14.7178 N.3     1  UNL1       -0.3208
     20 C          66.7664   91.3468   14.0233 C.3     1  UNL1        0.1075
     21 H          69.3084   91.9073   13.8085 H       1  UNL1        0.1189
     22 H          69.6471   91.8642   15.4388 H       1  UNL1        0.1189
     23 C          64.4181   87.9813   14.4963 C.1     1  UNL1        0.1047
     24 N          64.7933   87.0171   15.5824 N.1     1  UNL1       -0.1907
     25 C          64.0124   92.3836   11.6091 C.3     1  UNL1        0.1341
     26 C          65.2866   92.8163   10.9464 C.ar    1  UNL1        0.0004
     27 C          66.3852   91.8221   10.7121 C.ar    1  UNL1       -0.0024
     28 C          67.6594   92.2548   10.0494 C.ar    1  UNL1       -0.0003
     29 C          67.8351   93.6816    9.6211 C.ar    1  UNL1       -0.0000
     30 C          66.7366   94.6757    9.8555 C.ar    1  UNL1       -0.0003
     31 C          65.4623   94.2431   10.5181 C.ar    1  UNL1       -0.0024
@<TRIPOS>BOND
     1     1     2    1
     2     2     3   ar
     3     3     4    2
     4     3     5   ar
     5     5     6   ar
     6     6     7   ar
     7     7    23    1
     8    23    24    3
     9     7     8   ar
    10     8    14    1
    11    14    15    1
    12    15    16    1
    13    16    17    1
    14    17    18    1
    15    18    19    1
    16    18    20    1
    17     8     9   ar
    18     9    25    1
    19    25    26    1
    20    26    27   ar
    21    27    28   ar
    22    28    29   ar
    23    29    30   ar
    24    30    31   ar
    25     6    10   ar
    26    10    11    1
    27    10    12   ar
    28    12    13    2
    29    12     2   ar
    30     9     5   ar
    31    31    26   ar
    32    20    14    1
    33    19    21    1
    34    19    22    1
@<TRIPOS>MOLECULE
*****
 31 34 0 0 0
SMALL
GASTEIGER

@<TRIPOS>ATOM
      1 C          62.2869   91.5947   10.5900 C.3     1  UNL1        0.1383
      2 N          62.6501   90.3473   11.3398 N.ar    1  UNL1       -0.2455
      3 C          62.0602   89.0294   10.9333 C.ar    1  UNL1        0.2816
      4 O          61.1073   88.9589    9.7771 O.2     1  UNL1       -0.2652
      5 C          62.4234   87.7820   11.6831 C.ar    1  UNL1        0.1349
      6 C          63.3763   87.8525   12.8393 C.ar    1  UNL1        0.0966
      7 C          63.5464   86.4657   13.3852 C.ar    1  UNL1        0.1156
      8 C          62.6985   85.5382   12.5663 C.ar    1  UNL1        0.1240
      9 N          62.0044   86.3516   11.5143 N.ar    1  UNL1       -0.3063
     10 N          63.9662   89.1704   13.2458 N.ar    1  UNL1       -0.2770
     11 C          64.9192   89.2410   14.4021 C.3     1  UNL1        0.1351
     12 C          63.6030   90.4178   12.4960 C.ar    1  UNL1        0.3340
     13 O          64.1929   91.7358   12.9025 O.2     1  UNL1       -0.2462
     14 N          62.5676   84.0571   12.7645 N.pl3   1  UNL1       -0.2926
     15 C          62.0951   83.5154   14.0810 C.3     1  UNL1        0.0922
     16 C          61.9642   82.0343   14.2791 C.3     1  UNL1        0.0229
     17 C          62.3058   81.0949   13.1608 C.3     1  UNL1        0.0190
     18 C          62.7782   81.6365   11.8442 C.3     1  UNL1        0.0709
     19 N          63.1198   80.6972   10.7258 N.3     1  UNL1       -0.3208
     20 C          62.9091   83.1176   11.6461 C.3     1  UNL1        0.1075
     21 H          63.4205   81.2330    9.9116 H       1  UNL1        0.1189
     22 H          62.2980   80.1435   10.4838 H       1  UNL1        0.1189
     23 C          64.4122   86.0751   14.5461 C.1     1  UNL1        0.1047
     24 N          65.2781   85.6846   15.7070 N.1     1  UNL1       -0.1907
     25 C          61.0576   85.8268   10.4759 C.3     1  UNL1        0.1341
     26 C          61.5578   85.5061    9.0986 C.ar    1  UNL1        0.0004
     27 C          60.6102   85.5142    7.9358 C.ar    1  UNL1       -0.0024
     28 C          61.1104   85.1935    6.5585 C.ar    1  UNL1       -0.0003
     29 C          62.5581   84.8647    6.3440 C.ar    1  UNL1       -0.0000
     30 C          63.5056   84.8566    7.5067 C.ar    1  UNL1       -0.0003
     31 C          63.0056   85.1773    8.8841 C.ar    1  UNL1       -0.0024
@<TRIPOS>BOND
     1     1     2    1
     2     2     3   ar
     3     3     4    2
     4     3     5   ar
     5     5     6   ar
     6     6     7   ar
     7     7    23    1
     8    23    24    3
     9     7     8   ar
    10     8    14    1
    11    14    15    1
    12    15    16    1
    13    16    17    1
    14    17    18    1
    15    18    19    1
    16    18    20    1
    17     8     9   ar
    18     9    25    1
    19    25    26    1
    20    26    27   ar
    21    27    28   ar
    22    28    29   ar
    23    29    30   ar
    24    30    31   ar
    25     6    10   ar
    26    10    11    1
    27    10    12   ar
    28    12    13    2
    29    12     2   ar
    30     9     5   ar
    31    31    26   ar
    32    20    14    1
    33    19    21    1
    34    19    22    1
@<TRIPOS>MOLECULE
*****
 31 34 0 0 0
SMALL
GASTEIGER

@<TRIPOS>ATOM
      1 C          63.0937   91.4402   10.9538 C.3     1  UNL1        0.1383
      2 N          63.2174   90.1799   11.7578 N.ar    1  UNL1       -0.2455
      3 C          63.0058   88.8478   11.1014 C.ar    1  UNL1        0.2816
      4 O          62.6705   88.7761    9.6411 O.2     1  UNL1       -0.2652
      5 C          63.1295   87.5875   11.9053 C.ar    1  UNL1        0.1349
      6 C          63.4649   87.6592   13.3656 C.ar    1  UNL1        0.0966
      7 C          63.5203   86.2580   13.8979 C.ar    1  UNL1        0.1156
      8 C          63.2191   85.3202   12.7665 C.ar    1  UNL1        0.1240
      9 N          62.9777   86.1419   11.5351 N.ar    1  UNL1       -0.3063
     10 N          63.6765   88.9913   14.0219 N.ar    1  UNL1       -0.2770
     11 C          64.0119   89.0631   15.4822 C.3     1  UNL1        0.1351
     12 C          63.5528   90.2516   13.2179 C.ar    1  UNL1        0.3340
     13 O          63.7644   91.5838   13.8743 O.2     1  UNL1       -0.2462
     14 N          63.1684   83.8235   12.8517 N.pl3   1  UNL1       -0.2926
     15 C          64.2211   82.9976   12.1738 C.3     1  UNL1        0.0922
     16 C          64.1703   81.5008   12.2590 C.3     1  UNL1        0.0229
     17 C          63.0668   80.8300   13.0221 C.3     1  UNL1        0.0190
     18 C          62.0141   81.6559   13.7000 C.3     1  UNL1        0.0709
     19 N          60.9106   80.9852   14.4632 N.3     1  UNL1       -0.3208
     20 C          62.0649   83.1527   13.6148 C.3     1  UNL1        0.1075
     21 H          60.2896   81.6929   14.8555 H       1  UNL1        0.1189
     22 H          61.3096   80.4269   15.2178 H       1  UNL1        0.1189
     23 C          63.8236   85.8637   15.3130 C.1     1  UNL1        0.1047
     24 N          64.1268   85.4694   16.7281 N.1     1  UNL1       -0.1907
     25 C          62.6430   85.6111   10.1726 C.3     1  UNL1        0.1341
     26 C          61.4077   86.0848    9.4658 C.ar    1  UNL1        0.0004
     27 C          61.1859   85.7315    8.0250 C.ar    1  UNL1       -0.0024
     28 C          59.9506   86.2051    7.3182 C.ar    1  UNL1       -0.0003
     29 C          58.9370   87.0321    8.0522 C.ar    1  UNL1       -0.0000
     30 C          59.1587   87.3854    9.4930 C.ar    1  UNL1       -0.0003
     31 C          60.3941   86.9117   10.1999 C.ar    1  UNL1       -0.0024
@<TRIPOS>BOND
     1     1     2    1
     2     2     3   ar
     3     3     4    2
     4     3     5   ar
     5     5     6   ar
     6     6     7   ar
     7     7    23    1
     8    23    24    3
     9     7     8   ar
    10     8    14    1
    11    14    15    1
    12    15    16    1
    13    16    17    1
    14    17    18    1
    15    18    19    1
    16    18    20    1
    17     8     9   ar
    18     9    25    1
    19    25    26    1
    20    26    27   ar
    21    27    28   ar
    22    28    29   ar
    23    29    30   ar
    24    30    31   ar
    25     6    10   ar
    26    10    11    1
    27    10    12   ar
    28    12    13    2
    29    12     2   ar
    30     9     5   ar
    31    31    26   ar
    32    20    14    1
    33    19    21    1
    34    19    22    1
@<TRIPOS>MOLECULE
*****
 31 34 0 0 0
SMALL
GASTEIGER

@<TRIPOS>ATOM
      1 C          64.1546   91.9634   12.8700 C.3     1  UNL1        0.1383
      2 N          63.6610   90.6482   12.3439 N.ar    1  UNL1       -0.2455
      3 C          63.9776   89.3799   13.0795 C.ar    1  UNL1        0.2816
      4 O          64.7876   89.4267   14.3411 O.2     1  UNL1       -0.2652
      5 C          63.4841   88.0647   12.5535 C.ar    1  UNL1        0.1349
      6 C          62.6740   88.0178   11.2919 C.ar    1  UNL1        0.0966
      7 C          62.3265   86.5847   11.0171 C.ar    1  UNL1        0.1156
      8 C          62.9218   85.7459   12.1089 C.ar    1  UNL1        0.1240
      9 N          63.6372   86.6605   13.0584 N.ar    1  UNL1       -0.3063
     10 N          62.3575   89.2861   10.5563 N.ar    1  UNL1       -0.2770
     11 C          61.5474   89.2393    9.2946 C.3     1  UNL1        0.1351
     12 C          62.8510   90.6013   11.0824 C.ar    1  UNL1        0.3340
     13 O          62.5345   91.8698   10.3467 O.2     1  UNL1       -0.2462
     14 N          62.8196   84.2543   12.2299 N.pl3   1  UNL1       -0.2926
     15 C          63.1987   83.3801   11.0714 C.3     1  UNL1        0.0922
     16 C          63.0965   81.8884   11.1925 C.3     1  UNL1        0.0229
     17 C          62.6153   81.2710   12.4720 C.3     1  UNL1        0.0190
     18 C          62.2362   82.1452   13.6305 C.3     1  UNL1        0.0709
     19 N          61.7550   81.5278   14.9101 N.3     1  UNL1       -0.3208
     20 C          62.3384   83.6368   13.5094 C.3     1  UNL1        0.1075
     21 H          61.5435   82.2636   15.5841 H       1  UNL1        0.1189
     22 H          62.4810   80.9191   15.2879 H       1  UNL1        0.1189
     23 C          61.5245   86.0792    9.8546 C.1     1  UNL1        0.1047
     24 N          60.7226   85.5737    8.6922 N.1     1  UNL1       -0.1907
     25 C          64.3760   86.2441   14.2957 C.3     1  UNL1        0.1341
     26 C          63.7702   86.4826   15.6470 C.ar    1  UNL1        0.0004
     27 C          63.3245   85.3209   16.4847 C.ar    1  UNL1       -0.0024
     28 C          62.7186   85.5594   17.8360 C.ar    1  UNL1       -0.0003
     29 C          62.5584   86.9597   18.3496 C.ar    1  UNL1       -0.0000
     30 C          63.0040   88.1213   17.5119 C.ar    1  UNL1       -0.0003
     31 C          63.6099   87.8829   16.1606 C.ar    1  UNL1       -0.0024
@<TRIPOS>BOND
     1     1     2    1
     2     2     3   ar
     3     3     4    2
     4     3     5   ar
     5     5     6   ar
     6     6     7   ar
     7     7    23    1
     8    23    24    3
     9     7     8   ar
    10     8    14    1
    11    14    15    1
    12    15    16    1
    13    16    17    1
    14    17    18    1
    15    18    19    1
    16    18    20    1
    17     8     9   ar
    18     9    25    1
    19    25    26    1
    20    26    27   ar
    21    27    28   ar
    22    28    29   ar
    23    29    30   ar
    24    30    31   ar
    25     6    10   ar
    26    10    11    1
    27    10    12   ar
    28    12    13    2
    29    12     2   ar
    30     9     5   ar
    31    31    26   ar
    32    20    14    1
    33    19    21    1
    34    19    22    1
@<TRIPOS>MOLECULE
*****
 31 34 0 0 0
SMALL
GASTEIGER

@<TRIPOS>ATOM
      1 C          58.9616   89.6155    7.0694 C.3     1  UNL1        0.1383
      2 N          59.7772   88.6668    7.8971 N.ar    1  UNL1       -0.2455
      3 C          60.3632   89.1221    9.2006 C.ar    1  UNL1        0.2816
      4 O          60.1336   90.5260    9.6765 O.2     1  UNL1       -0.2652
      5 C          61.1788   88.1736   10.0283 C.ar    1  UNL1        0.1349
      6 C          61.4083   86.7697    9.5524 C.ar    1  UNL1        0.0966
      7 C          62.2489   86.0650   10.5756 C.ar    1  UNL1        0.1156
      8 C          62.5388   87.0333   11.6838 C.ar    1  UNL1        0.1240
      9 N          61.8774   88.3365   11.3456 N.ar    1  UNL1       -0.3063
     10 N          60.8223   86.3144    8.2488 N.ar    1  UNL1       -0.2770
     11 C          61.0519   84.9105    7.7729 C.3     1  UNL1        0.1351
     12 C          60.0067   87.2631    7.4212 C.ar    1  UNL1        0.3340
     13 O          59.4207   86.8077    6.1175 O.2     1  UNL1       -0.2462
     14 N          63.3480   86.7485   12.9143 N.pl3   1  UNL1       -0.2926
     15 C          63.9339   87.8804   13.7053 C.3     1  UNL1        0.0922
     16 C          64.7431   87.5955   14.9357 C.3     1  UNL1        0.0229
     17 C          64.9665   86.1789   15.3753 C.3     1  UNL1        0.0190
     18 C          64.3806   85.0470   14.5843 C.3     1  UNL1        0.0709
     19 N          64.6039   83.6303   15.0237 N.3     1  UNL1       -0.3208
     20 C          63.5714   85.3319   13.3538 C.3     1  UNL1        0.1075
     21 H          64.1382   82.9957   14.3751 H       1  UNL1        0.1189
     22 H          64.2212   83.5005   15.9602 H       1  UNL1        0.1189
     23 C          62.7173   84.6418   10.5032 C.1     1  UNL1        0.1047
     24 N          63.1857   83.2187   10.4308 N.1     1  UNL1       -0.1907
     25 C          61.9092   89.5836   12.1785 C.3     1  UNL1        0.1341
     26 C          63.0250   90.5714   12.0075 C.ar    1  UNL1        0.0004
     27 C          63.8205   91.0178   13.1983 C.ar    1  UNL1       -0.0024
     28 C          64.9363   92.0056   13.0273 C.ar    1  UNL1       -0.0003
     29 C          65.2566   92.5471   11.6656 C.ar    1  UNL1       -0.0000
     30 C          64.4611   92.1007   10.4749 C.ar    1  UNL1       -0.0003
     31 C          63.3453   91.1129   10.6458 C.ar    1  UNL1       -0.0024
@<TRIPOS>BOND
     1     1     2    1
     2     2     3   ar
     3     3     4    2
     4     3     5   ar
     5     5     6   ar
     6     6     7   ar
     7     7    23    1
     8    23    24    3
     9     7     8   ar
    10     8    14    1
    11    14    15    1
    12    15    16    1
    13    16    17    1
    14    17    18    1
    15    18    19    1
    16    18    20    1
    17     8     9   ar
    18     9    25    1
    19    25    26    1
    20    26    27   ar
    21    27    28   ar
    22    28    29   ar
    23    29    30   ar
    24    30    31   ar
    25     6    10   ar
    26    10    11    1
    27    10    12   ar
    28    12    13    2
    29    12     2   ar
    30     9     5   ar
    31    31    26   ar
    32    20    14    1
    33    19    21    1
    34    19    22    1
@<TRIPOS>MOLECULE
*****
 31 34 0 0 0
SMALL
GASTEIGER

@<TRIPOS>ATOM
      1 C          63.0358   80.4728   11.3257 C.3     1  UNL1        0.1383
      2 N          63.0950   81.8169   11.9891 N.ar    1  UNL1       -0.2455
      3 C          63.0719   83.0652   11.1577 C.ar    1  UNL1        0.2816
      4 O          62.9897   82.9694    9.6630 O.2     1  UNL1       -0.2652
      5 C          63.1312   84.4093   11.8210 C.ar    1  UNL1        0.1349
      6 C          63.2134   84.5050   13.3157 C.ar    1  UNL1        0.0966
      7 C          63.2587   85.9581   13.6853 C.ar    1  UNL1        0.1156
      8 C          63.2044   86.7603   12.4190 C.ar    1  UNL1        0.1240
      9 N          63.1256   85.8031   11.2668 N.ar    1  UNL1       -0.3063
     10 N          63.2365   83.2568   14.1471 N.ar    1  UNL1       -0.2770
     11 C          63.3188   83.3525   15.6418 C.3     1  UNL1        0.1351
     12 C          63.1773   81.9127   13.4837 C.ar    1  UNL1        0.3340
     13 O          63.2003   80.6643   14.3151 O.2     1  UNL1       -0.2462
     14 N          63.2253   88.2570   12.3219 N.pl3   1  UNL1       -0.2926
     15 C          62.5662   88.9427   11.1620 C.3     1  UNL1        0.0922
     16 C          62.5872   90.4394   11.0650 C.3     1  UNL1        0.0229
     17 C          63.2671   91.2505   12.1279 C.3     1  UNL1        0.0190
     18 C          63.9262   90.5649   13.2878 C.3     1  UNL1        0.0709
     19 N          64.6062   91.3759   14.3507 N.3     1  UNL1       -0.3208
     20 C          63.9053   89.0681   13.3848 C.3     1  UNL1        0.1075
     21 H          64.9965   90.7519   15.0569 H       1  UNL1        0.1189
     22 H          63.9286   92.0013   14.7868 H       1  UNL1        0.1189
     23 C          63.3434   86.5117   15.0768 C.1     1  UNL1        0.1047
     24 N          63.4281   87.0653   16.4683 N.1     1  UNL1       -0.1907
     25 C          63.0538   86.1746    9.8153 C.3     1  UNL1        0.1341
     26 C          61.7206   86.3216    9.1438 C.ar    1  UNL1        0.0004
     27 C          61.4565   85.6273    7.8407 C.ar    1  UNL1       -0.0024
     28 C          60.1233   85.7743    7.1692 C.ar    1  UNL1       -0.0003
     29 C          59.0540   86.6156    7.8009 C.ar    1  UNL1       -0.0000
     30 C          59.3181   87.3099    9.1040 C.ar    1  UNL1       -0.0003
     31 C          60.6513   87.1629    9.7756 C.ar    1  UNL1       -0.0024
@<TRIPOS>BOND
     1     1     2    1
     2     2     3   ar
     3     3     4    2
     4     3     5   ar
     5     5     6   ar
     6     6     7   ar
     7     7    23    1
     8    23    24    3
     9     7     8   ar
    10     8    14    1
    11    14    15    1
    12    15    16    1
    13    16    17    1
    14    17    18    1
    15    18    19    1
    16    18    20    1
    17     8     9   ar
    18     9    25    1
    19    25    26    1
    20    26    27   ar
    21    27    28   ar
    22    28    29   ar
    23    29    30   ar
    24    30    31   ar
    25     6    10   ar
    26    10    11    1
    27    10    12   ar
    28    12    13    2
    29    12     2   ar
    30     9     5   ar
    31    31    26   ar
    32    20    14    1
    33    19    21    1
    34    19    22    1
@<TRIPOS>MOLECULE
*****
 31 34 0 0 0
SMALL
GASTEIGER

@<TRIPOS>ATOM
      1 C          60.6295   89.9535    9.1008 C.3     1  UNL1        0.1383
      2 N          61.3936   90.1547   10.3759 N.ar    1  UNL1       -0.2455
      3 C          62.7500   90.7944   10.3444 C.ar    1  UNL1        0.2816
      4 O          63.3423   91.2328    9.0379 O.2     1  UNL1       -0.2652
      5 C          63.5141   90.9956   11.6194 C.ar    1  UNL1        0.1349
      6 C          62.9218   90.5571   12.9259 C.ar    1  UNL1        0.0966
      7 C          63.9030   90.8833   14.0125 C.ar    1  UNL1        0.1156
      8 C          65.1018   91.5234   13.3776 C.ar    1  UNL1        0.1240
      9 N          64.8615   91.5928   11.8986 N.ar    1  UNL1       -0.3063
     10 N          61.5654   89.9174   12.9574 N.ar    1  UNL1       -0.2770
     11 C          60.9730   89.4789   14.2639 C.3     1  UNL1        0.1351
     12 C          60.8013   89.7163   11.6823 C.ar    1  UNL1        0.3340
     13 O          59.4448   89.0765   11.7138 O.2     1  UNL1       -0.2462
     14 N          66.3261   92.0089   14.0955 N.pl3   1  UNL1       -0.2926
     15 C          66.1921   92.7247   15.4069 C.3     1  UNL1        0.0922
     16 C          67.4165   93.2102   16.1248 C.3     1  UNL1        0.0229
     17 C          68.7747   92.9799   15.5314 C.3     1  UNL1        0.0190
     18 C          68.9087   92.2641   14.2200 C.3     1  UNL1        0.0709
     19 N          70.2669   92.0338   13.6266 N.3     1  UNL1       -0.3208
     20 C          67.6843   91.7786   13.5021 C.3     1  UNL1        0.1075
     21 H          70.1711   91.5369   12.7409 H       1  UNL1        0.1189
     22 H          70.8290   91.4766   14.2699 H       1  UNL1        0.1189
     23 C          63.7180   90.6164   15.4769 C.1     1  UNL1        0.1047
     24 N          63.5330   90.3494   16.9413 N.1     1  UNL1       -0.1907
     25 C          65.8031   92.1599   10.8779 C.3     1  UNL1        0.1341
     26 C          66.0603   93.6370   10.8336 C.ar    1  UNL1        0.0004
     27 C          66.4621   94.2900    9.5444 C.ar    1  UNL1       -0.0024
     28 C          66.7192   95.7671    9.5001 C.ar    1  UNL1       -0.0003
     29 C          66.5746   96.5913   10.7451 C.ar    1  UNL1       -0.0000
     30 C          66.1728   95.9383   12.0343 C.ar    1  UNL1       -0.0003
     31 C          65.9156   94.4611   12.0786 C.ar    1  UNL1       -0.0024
@<TRIPOS>BOND
     1     1     2    1
     2     2     3   ar
     3     3     4    2
     4     3     5   ar
     5     5     6   ar
     6     6     7   ar
     7     7    23    1
     8    23    24    3
     9     7     8   ar
    10     8    14    1
    11    14    15    1
    12    15    16    1
    13    16    17    1
    14    17    18    1
    15    18    19    1
    16    18    20    1
    17     8     9   ar
    18     9    25    1
    19    25    26    1
    20    26    27   ar
    21    27    28   ar
    22    28    29   ar
    23    29    30   ar
    24    30    31   ar
    25     6    10   ar
    26    10    11    1
    27    10    12   ar
    28    12    13    2
    29    12     2   ar
    30     9     5   ar
    31    31    26   ar
    32    20    14    1
    33    19    21    1
    34    19    22    1
@<TRIPOS>MOLECULE
*****
 31 34 0 0 0
SMALL
GASTEIGER

@<TRIPOS>ATOM
      1 C          65.6869   94.0952    9.2284 C.3     1  UNL1        0.1383
      2 N          65.6092   93.5098   10.6073 N.ar    1  UNL1       -0.2455
      3 C          64.9291   92.1907   10.8247 C.ar    1  UNL1        0.2816
      4 O          64.3267   91.4570    9.6633 O.2     1  UNL1       -0.2652
      5 C          64.8514   91.6052   12.2035 C.ar    1  UNL1        0.1349
      6 C          65.4538   92.3389   13.3649 C.ar    1  UNL1        0.0966
      7 C          65.2238   91.5198   14.6003 C.ar    1  UNL1        0.1156
      8 C          64.4793   90.2799   14.2025 C.ar    1  UNL1        0.1240
      9 N          64.2491   90.3327   12.7212 N.ar    1  UNL1       -0.3063
     10 N          66.1339   93.6580   13.1475 N.ar    1  UNL1       -0.2770
     11 C          66.7363   94.3918   14.3089 C.3     1  UNL1        0.1351
     12 C          66.2116   94.2435   11.7686 C.ar    1  UNL1        0.3340
     13 O          66.8918   95.5627   11.5511 O.2     1  UNL1       -0.2462
     14 N          64.0417   89.1803   15.1241 N.pl3   1  UNL1       -0.2926
     15 C          63.2044   89.4987   16.3272 C.3     1  UNL1        0.0922
     16 C          62.7669   88.3990   17.2488 C.3     1  UNL1        0.0229
     17 C          63.1666   86.9809   16.9672 C.3     1  UNL1        0.0190
     18 C          64.0039   86.6625   15.7641 C.3     1  UNL1        0.0709
     19 N          64.4036   85.2445   15.4825 N.3     1  UNL1       -0.3208
     20 C          64.4414   87.7622   14.8425 C.3     1  UNL1        0.1075
     21 H          64.9660   85.2123   14.6322 H       1  UNL1        0.1189
     22 H          63.5673   84.6737   15.3588 H       1  UNL1        0.1189
     23 C          65.6615   91.8778   15.9897 C.1     1  UNL1        0.1047
     24 N          66.0992   92.2358   17.3790 N.1     1  UNL1       -0.1907
     25 C          63.5410   89.2951   11.9014 C.3     1  UNL1        0.1341
     26 C          62.1764   89.5799   11.3474 C.ar    1  UNL1        0.0004
     27 C          61.8750   89.2854    9.9078 C.ar    1  UNL1       -0.0024
     28 C          60.5105   89.5702    9.3538 C.ar    1  UNL1       -0.0003
     29 C          59.4473   90.1494   10.2393 C.ar    1  UNL1       -0.0000
     30 C          59.7487   90.4438   11.6789 C.ar    1  UNL1       -0.0003
     31 C          61.1132   90.1591   12.2330 C.ar    1  UNL1       -0.0024
@<TRIPOS>BOND
     1     1     2    1
     2     2     3   ar
     3     3     4    2
     4     3     5   ar
     5     5     6   ar
     6     6     7   ar
     7     7    23    1
     8    23    24    3
     9     7     8   ar
    10     8    14    1
    11    14    15    1
    12    15    16    1
    13    16    17    1
    14    17    18    1
    15    18    19    1
    16    18    20    1
    17     8     9   ar
    18     9    25    1
    19    25    26    1
    20    26    27   ar
    21    27    28   ar
    22    28    29   ar
    23    29    30   ar
    24    30    31   ar
    25     6    10   ar
    26    10    11    1
    27    10    12   ar
    28    12    13    2
    29    12     2   ar
    30     9     5   ar
    31    31    26   ar
    32    20    14    1
    33    19    21    1
    34    19    22    1
