@<TRIPOS>MOLECULE
*****
 37 41 0 0 0
SMALL
GASTEIGER

@<TRIPOS>ATOM
      1 C          64.3993   90.9075   13.8417 C.3     1  UNL1        0.1225
      2 O          63.8239   91.7952   12.7783 O.3     1  UNL1       -0.3559
      3 C          63.0190   91.2015   11.6604 C.3     1  UNL1        0.1441
      4 C          62.7894   89.7202   11.6060 C.3     1  UNL1        0.0589
      5 C          63.3648   88.8325   12.6694 C.3     1  UNL1        0.1466
      6 C          63.1352   87.3512   12.6150 C.ar    1  UNL1        0.0618
      7 C          62.3302   86.7575   11.4972 C.ar    1  UNL1        0.1407
      8 F          61.6274   87.3290   10.3015 F       1  UNL1       -0.2043
      9 C          62.1007   85.2762   11.4428 C.ar    1  UNL1        0.0319
     10 C          62.6760   84.3885   12.5062 C.ar    1  UNL1        0.0351
     11 C          63.4810   84.9822   13.6240 C.ar    1  UNL1        0.1737
     12 F          64.0564   84.0944   14.6875 F       1  UNL1       -0.2010
     13 C          63.7105   86.4635   13.6784 C.ar    1  UNL1        0.1655
     14 O          64.5155   87.0571   14.7964 O.3     1  UNL1       -0.4732
     15 C          64.7451   88.5384   14.8508 C.3     1  UNL1        0.2098
     16 C          64.1697   89.4261   13.7873 C.3     1  UNL1        0.0957
     17 S          62.5598   88.2389   11.5516 S.O2    1  UNL1        0.0094
     18 O          62.9525   87.8938   10.9497 O.2     1  UNL1       -0.1684
     19 O          61.1375   88.5023   11.9488 O.2     1  UNL1       -0.1684
     20 C          61.7548   87.6452   10.4337 C.ar    1  UNL1        0.1059
     21 C          62.4464   86.9533    9.2967 C.ar    1  UNL1        0.0192
     22 C          61.6414   86.3597    8.1788 C.ar    1  UNL1        0.0127
     23 C          60.1447   86.4580    8.1980 C.ar    1  UNL1        0.0578
     24 CL         59.3397   85.8644    7.0802 Cl      1  UNL1       -0.0822
     25 C          59.4531   87.1499    9.3351 C.ar    1  UNL1        0.0127
     26 C          60.2581   87.7435   10.4529 C.ar    1  UNL1        0.0192
     27 C          65.2043   91.5011   14.9596 C.3     1  UNL1        0.0550
     28 C          66.3747   92.3875   14.6525 C.3     1  UNL1        0.1533
     29 O          67.3582   91.5877   12.9516 O.2     1  UNL1       -0.1730
     30 S          66.6128   92.8553   13.2474 S.O2    1  UNL1       -0.0102
     31 O          65.8675   94.1230   13.5431 O.2     1  UNL1       -0.1730
     32 C          66.8509   93.3233   11.8422 C.3     1  UNL1        0.1461
     33 C          67.4581   92.5142   10.7346 C.3     1  UNL1        0.0420
     34 C          67.5061   93.3733    9.5057 C.3     1  UNL1        0.0704
     35 N          66.9286   94.7132    9.8540 N.3     1  UNL1       -0.2960
     36 C          66.5237   94.6822   11.2980 C.3     1  UNL1        0.0924
     37 H          66.1137   94.9013    9.2700 H       1  UNL1        0.1233
@<TRIPOS>BOND
     1    29    30    2
     2    30    31    2
     3    30    28    1
     4    28    27    1
     5     1    27    1
     6     1     2    1
     7     2     3    1
     8     3     4    1
     9     4     5    1
    10     5    17    1
    11    17    18    2
    12    17    19    2
    13    17    20    1
    14    20    21   ar
    15    21    22   ar
    16    22    23   ar
    17    23    24    1
    18    23    25   ar
    19    25    26   ar
    20     5     6    1
    21     6     7   ar
    22     7     8    1
    23     7     9   ar
    24     9    10   ar
    25    10    11   ar
    26    11    12    1
    27    11    13   ar
    28    13    14    1
    29    14    15    1
    30    16    15    1
    31    32    30    1
    32    32    33    1
    33    33    34    1
    34    34    35    1
    35    35    36    1
    36    16     1    1
    37    36    32    1
    38    16     5    1
    39    26    20   ar
    40    13     6   ar
    41    35    37    1
@<TRIPOS>MOLECULE
*****
 37 41 0 0 0
SMALL
GASTEIGER

@<TRIPOS>ATOM
      1 C          64.2309   89.0345   14.2893 C.3     1  UNL1        0.1225
      2 O          64.8670   88.0303   15.2042 O.3     1  UNL1       -0.3559
      3 C          64.7562   86.5652   14.9026 C.3     1  UNL1        0.1441
      4 C          64.0093   86.1042   13.6862 C.3     1  UNL1        0.0589
      5 C          63.3732   87.1084   12.7713 C.3     1  UNL1        0.1466
      6 C          62.6263   86.6474   11.5549 C.ar    1  UNL1        0.0618
      7 C          62.5155   85.1822   11.2534 C.ar    1  UNL1        0.1407
      8 F          63.0129   83.9387   11.9290 F       1  UNL1       -0.2043
      9 C          61.7686   84.7213   10.0370 C.ar    1  UNL1        0.0319
     10 C          61.1325   85.7254    9.1221 C.ar    1  UNL1        0.0351
     11 C          61.2433   87.1906    9.4237 C.ar    1  UNL1        0.1737
     12 F          60.6071   88.1948    8.5089 F       1  UNL1       -0.2010
     13 C          61.9902   87.6516   10.6401 C.ar    1  UNL1        0.1655
     14 O          62.1009   89.1168   10.9417 O.3     1  UNL1       -0.4732
     15 C          62.8478   89.5778   12.1581 C.3     1  UNL1        0.2098
     16 C          63.4840   88.5735   13.0729 C.3     1  UNL1        0.0957
     17 S          63.2624   85.6432   12.4698 S.O2    1  UNL1        0.0094
     18 O          63.7982   85.3213   11.9750 O.2     1  UNL1       -0.1684
     19 O          62.0704   85.1982   13.2643 O.2     1  UNL1       -0.1684
     20 C          63.1515   84.1780   12.1682 C.ar    1  UNL1        0.1059
     21 C          63.9380   83.5833   11.0378 C.ar    1  UNL1        0.0192
     22 C          63.8271   82.1181   10.7363 C.ar    1  UNL1        0.0127
     23 C          62.9298   81.2476   11.5651 C.ar    1  UNL1        0.0578
     24 CL         62.8190   79.7824   11.2636 Cl      1  UNL1       -0.0822
     25 C          62.1433   81.8423   12.6956 C.ar    1  UNL1        0.0127
     26 C          62.2542   83.3075   12.9971 C.ar    1  UNL1        0.0192
     27 C          64.3416   90.4998   14.5909 C.3     1  UNL1        0.0550
     28 C          65.6825   91.1716   14.5647 C.3     1  UNL1        0.1533
     29 O          64.6312   92.3531   13.1510 O.2     1  UNL1       -0.1730
     30 S          66.0738   92.0195   13.3909 S.O2    1  UNL1       -0.0102
     31 O          67.5164   91.6859   13.6307 O.2     1  UNL1       -0.1730
     32 C          66.4651   92.8675   12.2170 C.3     1  UNL1        0.1461
     33 C          67.1032   92.3791   10.9504 C.3     1  UNL1        0.0420
     34 C          67.3195   93.5624   10.0542 C.3     1  UNL1        0.0704
     35 N          66.8150   94.7821   10.7670 N.3     1  UNL1       -0.2960
     36 C          66.2869   94.3525   12.1037 C.3     1  UNL1        0.0924
     37 H          66.0692   95.2169   10.2237 H       1  UNL1        0.1233
@<TRIPOS>BOND
     1    29    30    2
     2    30    31    2
     3    30    28    1
     4    28    27    1
     5     1    27    1
     6     1     2    1
     7     2     3    1
     8     3     4    1
     9     4     5    1
    10     5    17    1
    11    17    18    2
    12    17    19    2
    13    17    20    1
    14    20    21   ar
    15    21    22   ar
    16    22    23   ar
    17    23    24    1
    18    23    25   ar
    19    25    26   ar
    20     5     6    1
    21     6     7   ar
    22     7     8    1
    23     7     9   ar
    24     9    10   ar
    25    10    11   ar
    26    11    12    1
    27    11    13   ar
    28    13    14    1
    29    14    15    1
    30    16    15    1
    31    32    30    1
    32    32    33    1
    33    33    34    1
    34    34    35    1
    35    35    36    1
    36    16     1    1
    37    36    32    1
    38    16     5    1
    39    26    20   ar
    40    13     6   ar
    41    35    37    1
@<TRIPOS>MOLECULE
*****
 37 41 0 0 0
SMALL
GASTEIGER

@<TRIPOS>ATOM
      1 C          64.1641   90.1053   13.6853 C.3     1  UNL1        0.1225
      2 O          64.7152   89.4898   14.9373 O.3     1  UNL1       -0.3559
      3 C          64.6286   88.0068   15.1449 C.3     1  UNL1        0.1441
      4 C          63.9910   87.1393   14.1005 C.3     1  UNL1        0.0589
      5 C          63.4399   87.7547   12.8485 C.3     1  UNL1        0.1466
      6 C          62.8023   86.8872   11.8041 C.ar    1  UNL1        0.0618
      7 C          62.7157   85.4041   12.0117 C.ar    1  UNL1        0.1407
      8 F          63.1492   84.4785   13.1097 F       1  UNL1       -0.2043
      9 C          62.0780   84.5366   10.9673 C.ar    1  UNL1        0.0319
     10 C          61.5270   85.1520    9.7154 C.ar    1  UNL1        0.0351
     11 C          61.6135   86.6350    9.5078 C.ar    1  UNL1        0.1737
     12 F          61.0624   87.2506    8.2557 F       1  UNL1       -0.2010
     13 C          62.2512   87.5026   10.5522 C.ar    1  UNL1        0.1655
     14 O          62.3377   88.9857   10.3445 O.3     1  UNL1       -0.4732
     15 C          62.9754   89.8533   11.3889 C.3     1  UNL1        0.2098
     16 C          63.5265   89.2377   12.6409 C.3     1  UNL1        0.0957
     17 S          63.3533   86.2717   13.0561 S.O2    1  UNL1        0.0094
     18 O          62.7365   85.8838   12.7328 O.2     1  UNL1       -0.1684
     19 O          64.5634   85.9496   13.8821 O.2     1  UNL1       -0.1684
     20 C          63.2668   84.7886   13.2637 C.ar    1  UNL1        0.1059
     21 C          64.2589   83.8794   12.6012 C.ar    1  UNL1        0.0192
     22 C          64.1724   82.3963   12.8088 C.ar    1  UNL1        0.0127
     23 C          63.0937   81.8225   13.6790 C.ar    1  UNL1        0.0578
     24 CL         63.0071   80.3395   13.8866 Cl      1  UNL1       -0.0822
     25 C          62.1015   82.7318   14.3416 C.ar    1  UNL1        0.0127
     26 C          62.1881   84.2148   14.1339 C.ar    1  UNL1        0.0192
     27 C          64.2507   91.5884   13.4777 C.3     1  UNL1        0.0550
     28 C          65.5870   92.2696   13.4826 C.3     1  UNL1        0.1533
     29 O          64.9566   92.7346   11.5113 O.2     1  UNL1       -0.1730
     30 S          66.2845   92.5623   12.1873 S.O2    1  UNL1       -0.0102
     31 O          67.6123   92.3900   12.8634 O.2     1  UNL1       -0.1730
     32 C          66.9820   92.8550   10.8920 C.3     1  UNL1        0.1461
     33 C          68.0280   91.9994   10.2410 C.3     1  UNL1        0.0420
     34 C          68.4485   92.6703    8.9669 C.3     1  UNL1        0.0704
     35 N          67.6623   93.9405    8.8306 N.3     1  UNL1       -0.2960
     36 C          66.7560   94.0547   10.0204 C.3     1  UNL1        0.0924
     37 H          67.1082   93.9145    7.9746 H       1  UNL1        0.1233
@<TRIPOS>BOND
     1    29    30    2
     2    30    31    2
     3    30    28    1
     4    28    27    1
     5     1    27    1
     6     1     2    1
     7     2     3    1
     8     3     4    1
     9     4     5    1
    10     5    17    1
    11    17    18    2
    12    17    19    2
    13    17    20    1
    14    20    21   ar
    15    21    22   ar
    16    22    23   ar
    17    23    24    1
    18    23    25   ar
    19    25    26   ar
    20     5     6    1
    21     6     7   ar
    22     7     8    1
    23     7     9   ar
    24     9    10   ar
    25    10    11   ar
    26    11    12    1
    27    11    13   ar
    28    13    14    1
    29    14    15    1
    30    16    15    1
    31    32    30    1
    32    32    33    1
    33    33    34    1
    34    34    35    1
    35    35    36    1
    36    16     1    1
    37    36    32    1
    38    16     5    1
    39    26    20   ar
    40    13     6   ar
    41    35    37    1
