@<TRIPOS>MOLECULE
*****
 22 24 0 0 0
SMALL
GASTEIGER

@<TRIPOS>ATOM
      1 N          62.7419   85.5111   12.9892 N.pl3   1  UNL1       -0.3132
      2 H          62.2961   85.6622   13.8539 H       1  UNL1        0.1485
      3 C          62.4013   86.3723   11.8092 C.ar    1  UNL1        0.1480
      4 N          61.7071   85.7757   10.6208 N.ar    1  UNL1       -0.2277
      5 C          61.3665   86.6369    9.4409 C.ar    1  UNL1        0.1019
      6 C          61.7202   88.0946    9.4492 C.ar    1  UNL1        0.0395
      7 C          62.4144   88.6911   10.6375 C.ar    1  UNL1        0.0830
      8 C          62.7550   87.8300   11.8175 C.ar    1  UNL1        0.1295
      9 N          63.4356   88.6918   12.8393 N.ar    1  UNL1       -0.2281
     10 C          63.5157   90.0856   12.2908 C.ar    1  UNL1        0.1209
     11 C          64.1207   91.2717   12.9817 C.3     1  UNL1        0.0718
     12 N          62.8845   90.0852   10.9300 N.ar    1  UNL1       -0.3128
     13 C          62.7476   91.2706   10.0212 C.3     1  UNL1        0.1316
     14 C          63.7618   84.4198   12.8518 C.3     1  UNL1        0.1148
     15 C          64.0105   82.8852   10.2860 C.3     1  UNL1        0.0307
     16 C          63.4475   82.2195   11.5066 C.ar    1  UNL1       -0.0245
     17 C          63.0087   80.7864   11.4443 C.ar    1  UNL1       -0.0045
     18 C          62.4457   80.1207   12.6648 C.ar    1  UNL1       -0.0007
     19 C          62.3213   80.8880   13.9477 C.ar    1  UNL1       -0.0045
     20 C          62.7600   82.3210   14.0100 C.ar    1  UNL1       -0.0245
     21 C          62.6357   83.0883   15.2929 C.3     1  UNL1        0.0307
     22 C          63.3231   82.9868   12.7894 C.ar    1  UNL1       -0.0105
@<TRIPOS>BOND
     1    15    16    1
     2    16    17   ar
     3    17    18   ar
     4    18    19   ar
     5    19    20   ar
     6    20    21    1
     7    20    22   ar
     8    22    14    1
     9    14     1    1
    10     1     3    1
    11     3     4   ar
    12     4     5   ar
    13     5     6   ar
    14     6     7   ar
    15     7     8   ar
    16     8     9   ar
    17     9    10   ar
    18    10    11    1
    19    10    12   ar
    20    12    13    1
    21    22    16   ar
    22     8     3   ar
    23    12     7   ar
    24     1     2    1
@<TRIPOS>MOLECULE
*****
 22 24 0 0 0
SMALL
GASTEIGER

@<TRIPOS>ATOM
      1 N          62.7320   85.5154   12.9827 N.pl3   1  UNL1       -0.3132
      2 H          62.2839   85.6664   13.8463 H       1  UNL1        0.1485
      3 C          62.3926   86.3751   11.8013 C.ar    1  UNL1        0.1480
      4 N          61.6986   85.7774   10.6134 N.ar    1  UNL1       -0.2277
      5 C          61.3592   86.6371    9.4321 C.ar    1  UNL1        0.1019
      6 C          61.7140   88.0945    9.4385 C.ar    1  UNL1        0.0395
      7 C          62.4081   88.6922   10.6263 C.ar    1  UNL1        0.0830
      8 C          62.7474   87.8325   11.8077 C.ar    1  UNL1        0.1295
      9 N          63.4282   88.6954   12.8286 N.ar    1  UNL1       -0.2281
     10 C          63.5096   90.0883   12.2781 C.ar    1  UNL1        0.1209
     11 C          64.1151   91.2749   12.9676 C.3     1  UNL1        0.0718
     12 N          62.8791   90.0864   10.9170 N.ar    1  UNL1       -0.3128
     13 C          62.7435   91.2706   10.0064 C.3     1  UNL1        0.1316
     14 C          63.7540   84.4257   12.8485 C.3     1  UNL1        0.1148
     15 C          62.6336   83.1026   15.2967 C.3     1  UNL1        0.0307
     16 C          62.7581   82.3300   14.0172 C.ar    1  UNL1       -0.0245
     17 C          62.3224   80.8956   13.9617 C.ar    1  UNL1       -0.0045
     18 C          62.4469   80.1230   12.6821 C.ar    1  UNL1       -0.0007
     19 C          63.0071   80.7845   11.4579 C.ar    1  UNL1       -0.0045
     20 C          63.4428   82.2187   11.5134 C.ar    1  UNL1       -0.0245
     21 C          64.0031   82.8802   10.2892 C.3     1  UNL1        0.0307
     22 C          63.3183   82.9915   12.7930 C.ar    1  UNL1       -0.0105
@<TRIPOS>BOND
     1    15    16    1
     2    16    17   ar
     3    17    18   ar
     4    18    19   ar
     5    19    20   ar
     6    20    21    1
     7    20    22   ar
     8    22    14    1
     9    14     1    1
    10     1     3    1
    11     3     4   ar
    12     4     5   ar
    13     5     6   ar
    14     6     7   ar
    15     7     8   ar
    16     8     9   ar
    17     9    10   ar
    18    10    11    1
    19    10    12   ar
    20    12    13    1
    21    22    16   ar
    22     8     3   ar
    23    12     7   ar
    24     1     2    1
@<TRIPOS>MOLECULE
*****
 22 24 0 0 0
SMALL
GASTEIGER

@<TRIPOS>ATOM
      1 N          62.8094   85.6235   12.4900 N.pl3   1  UNL1       -0.3132
      2 H          62.4658   86.1747   13.2299 H       1  UNL1        0.1485
      3 C          62.4119   85.9327   11.0770 C.ar    1  UNL1        0.1480
      4 N          62.8357   85.0228    9.9624 N.ar    1  UNL1       -0.2277
      5 C          62.4382   85.3321    8.5495 C.ar    1  UNL1        0.1019
      6 C          61.6168   86.5513    8.2512 C.ar    1  UNL1        0.0395
      7 C          61.1930   87.4612    9.3658 C.ar    1  UNL1        0.0830
      8 C          61.5906   87.1519   10.7787 C.ar    1  UNL1        0.1295
      9 N          61.0297   88.2255   11.6637 N.ar    1  UNL1       -0.2281
     10 C          60.2856   89.1982   10.7976 C.ar    1  UNL1        0.1209
     11 C          59.5666   90.4275   11.2689 C.3     1  UNL1        0.0718
     12 N          60.3865   88.7259    9.3775 N.ar    1  UNL1       -0.3128
     13 C          59.7863   89.3998    8.1794 C.3     1  UNL1        0.1316
     14 C          63.7304   84.4745   12.7756 C.3     1  UNL1        0.1148
     15 C          62.1744   83.8488   15.2630 C.3     1  UNL1        0.0307
     16 C          62.3927   82.7857   14.2276 C.ar    1  UNL1       -0.0245
     17 C          61.8331   81.4096   14.4359 C.ar    1  UNL1       -0.0045
     18 C          62.0514   80.3465   13.4005 C.ar    1  UNL1       -0.0007
     19 C          62.8294   80.6594   12.1568 C.ar    1  UNL1       -0.0045
     20 C          63.3890   82.0354   11.9485 C.ar    1  UNL1       -0.0245
     21 C          64.1670   82.3482   10.7048 C.3     1  UNL1        0.0307
     22 C          63.1707   83.0986   12.9839 C.ar    1  UNL1       -0.0105
@<TRIPOS>BOND
     1    15    16    1
     2    16    17   ar
     3    17    18   ar
     4    18    19   ar
     5    19    20   ar
     6    20    21    1
     7    20    22   ar
     8    22    14    1
     9    14     1    1
    10     1     3    1
    11     3     4   ar
    12     4     5   ar
    13     5     6   ar
    14     6     7   ar
    15     7     8   ar
    16     8     9   ar
    17     9    10   ar
    18    10    11    1
    19    10    12   ar
    20    12    13    1
    21    22    16   ar
    22     8     3   ar
    23    12     7   ar
    24     1     2    1
@<TRIPOS>MOLECULE
*****
 22 24 0 0 0
SMALL
GASTEIGER

@<TRIPOS>ATOM
      1 N          61.8885   89.2469   12.3400 N.pl3   1  UNL1       -0.3132
      2 H          60.9151   89.3618   12.4318 H       1  UNL1        0.1485
      3 C          62.8176   89.9164   13.3090 C.ar    1  UNL1        0.1480
      4 N          62.7387   89.5903   14.7709 N.ar    1  UNL1       -0.2277
      5 C          63.6677   90.2598   15.7398 C.ar    1  UNL1        0.1019
      6 C          64.6755   91.2554   15.2467 C.ar    1  UNL1        0.0395
      7 C          64.7543   91.5815   13.7847 C.ar    1  UNL1        0.0830
      8 C          63.8254   90.9120   12.8158 C.ar    1  UNL1        0.1295
      9 N          64.1349   91.4308   11.4428 N.ar    1  UNL1       -0.2281
     10 C          65.2552   92.4210   11.5632 C.ar    1  UNL1        0.1209
     11 C          65.8826   93.1841   10.4344 C.3     1  UNL1        0.0718
     12 N          65.6380   92.5141   13.0106 N.ar    1  UNL1       -0.3128
     13 C          66.7154   93.3866   13.5832 C.3     1  UNL1        0.1316
     14 C          62.4428   88.4024   11.2311 C.3     1  UNL1        0.1148
     15 C          60.6869   90.3606    9.7882 C.3     1  UNL1        0.0307
     16 C          60.6664   88.9107    9.4047 C.ar    1  UNL1       -0.0245
     17 C          59.7679   88.4398    8.2996 C.ar    1  UNL1       -0.0045
     18 C          59.7474   86.9898    7.9161 C.ar    1  UNL1       -0.0007
     19 C          60.6253   86.0107    8.6376 C.ar    1  UNL1       -0.0045
     20 C          61.5238   86.4815    9.7426 C.ar    1  UNL1       -0.0245
     21 C          62.4017   85.5024   10.4640 C.3     1  UNL1        0.0307
     22 C          61.5443   87.9315   10.1261 C.ar    1  UNL1       -0.0105
@<TRIPOS>BOND
     1    15    16    1
     2    16    17   ar
     3    17    18   ar
     4    18    19   ar
     5    19    20   ar
     6    20    21    1
     7    20    22   ar
     8    22    14    1
     9    14     1    1
    10     1     3    1
    11     3     4   ar
    12     4     5   ar
    13     5     6   ar
    14     6     7   ar
    15     7     8   ar
    16     8     9   ar
    17     9    10   ar
    18    10    11    1
    19    10    12   ar
    20    12    13    1
    21    22    16   ar
    22     8     3   ar
    23    12     7   ar
    24     1     2    1
@<TRIPOS>MOLECULE
*****
 22 24 0 0 0
SMALL
GASTEIGER

@<TRIPOS>ATOM
      1 N          62.7919   89.4940   11.1697 N.pl3   1  UNL1       -0.3132
      2 H          62.8150   90.0528   10.3594 H       1  UNL1        0.1485
      3 C          63.4593   89.9677   12.4268 C.ar    1  UNL1        0.1480
      4 N          63.2315   89.2383   13.7175 N.ar    1  UNL1       -0.2277
      5 C          63.8990   89.7120   14.9745 C.ar    1  UNL1        0.1019
      6 C          64.7943   90.9151   14.9407 C.ar    1  UNL1        0.0395
      7 C          65.0221   91.6444   13.6500 C.ar    1  UNL1        0.0830
      8 C          64.3546   91.1707   12.3930 C.ar    1  UNL1        0.1295
      9 N          64.7650   92.0855   11.2772 N.ar    1  UNL1       -0.2281
     10 C          65.6861   93.1245   11.8446 C.ar    1  UNL1        0.1209
     11 C          66.3346   94.2402   11.0799 C.3     1  UNL1        0.0718
     12 N          65.8450   92.8519   13.3111 N.ar    1  UNL1       -0.3128
     13 C          66.6801   93.6471   14.2703 C.3     1  UNL1        0.1316
     14 C          62.0891   88.1690   11.1472 C.3     1  UNL1        0.1148
     15 C          62.5307   85.4952    9.8603 C.3     1  UNL1        0.0307
     16 C          61.4997   86.4331    9.3062 C.ar    1  UNL1       -0.0245
     17 C          60.6893   86.0342    8.1085 C.ar    1  UNL1       -0.0045
     18 C          59.6583   86.9721    7.5543 C.ar    1  UNL1       -0.0007
     19 C          59.4375   88.3090    8.1978 C.ar    1  UNL1       -0.0045
     20 C          60.2477   88.7080    9.3953 C.ar    1  UNL1       -0.0245
     21 C          60.0269   90.0449   10.0388 C.3     1  UNL1        0.0307
     22 C          61.2789   87.7700    9.9496 C.ar    1  UNL1       -0.0105
@<TRIPOS>BOND
     1    15    16    1
     2    16    17   ar
     3    17    18   ar
     4    18    19   ar
     5    19    20   ar
     6    20    21    1
     7    20    22   ar
     8    22    14    1
     9    14     1    1
    10     1     3    1
    11     3     4   ar
    12     4     5   ar
    13     5     6   ar
    14     6     7   ar
    15     7     8   ar
    16     8     9   ar
    17     9    10   ar
    18    10    11    1
    19    10    12   ar
    20    12    13    1
    21    22    16   ar
    22     8     3   ar
    23    12     7   ar
    24     1     2    1
@<TRIPOS>MOLECULE
*****
 22 24 0 0 0
SMALL
GASTEIGER

@<TRIPOS>ATOM
      1 N          63.5269   88.8116   13.1458 N.pl3   1  UNL1       -0.3132
      2 H          64.1052   88.6027   13.9147 H       1  UNL1        0.1485
      3 C          63.0284   87.7081   12.2604 C.ar    1  UNL1        0.1480
      4 N          62.4164   88.0325   10.9300 N.ar    1  UNL1       -0.2277
      5 C          61.9180   86.9290   10.0447 C.ar    1  UNL1        0.1019
      6 C          62.0316   85.5011   10.4899 C.ar    1  UNL1        0.0395
      7 C          62.6436   85.1767   11.8203 C.ar    1  UNL1        0.0830
      8 C          63.1420   86.2802   12.7056 C.ar    1  UNL1        0.1295
      9 N          63.6945   85.6591   13.9543 N.ar    1  UNL1       -0.2281
     10 C          63.5374   84.1716   13.8406 C.ar    1  UNL1        0.1209
     11 C          63.9564   83.1599   14.8658 C.3     1  UNL1        0.0718
     12 N          62.8879   83.8735   12.5218 N.ar    1  UNL1       -0.3128
     13 C          62.5433   82.5114   11.9966 C.3     1  UNL1        0.1316
     14 C          63.1442   90.2335   12.8597 C.3     1  UNL1        0.1148
     15 C          65.1944   91.1359   14.8553 C.3     1  UNL1        0.0307
     16 C          65.2195   91.6780   13.4569 C.ar    1  UNL1       -0.0245
     17 C          66.2697   92.6713   13.0562 C.ar    1  UNL1       -0.0045
     18 C          66.2948   93.2133   11.6579 C.ar    1  UNL1       -0.0007
     19 C          65.2697   92.7621   10.6601 C.ar    1  UNL1       -0.0045
     20 C          64.2195   91.7689   11.0606 C.ar    1  UNL1       -0.0245
     21 C          63.1945   91.3177   10.0629 C.3     1  UNL1        0.0307
     22 C          64.1944   91.2268   12.4591 C.ar    1  UNL1       -0.0105
@<TRIPOS>BOND
     1    15    16    1
     2    16    17   ar
     3    17    18   ar
     4    18    19   ar
     5    19    20   ar
     6    20    21    1
     7    20    22   ar
     8    22    14    1
     9    14     1    1
    10     1     3    1
    11     3     4   ar
    12     4     5   ar
    13     5     6   ar
    14     6     7   ar
    15     7     8   ar
    16     8     9   ar
    17     9    10   ar
    18    10    11    1
    19    10    12   ar
    20    12    13    1
    21    22    16   ar
    22     8     3   ar
    23    12     7   ar
    24     1     2    1
@<TRIPOS>MOLECULE
*****
 22 24 0 0 0
SMALL
GASTEIGER

@<TRIPOS>ATOM
      1 N          63.7905   85.2043   13.6273 N.pl3   1  UNL1       -0.3132
      2 H          64.7043   84.9107   13.4081 H       1  UNL1        0.1485
      3 C          63.5487   86.0706   14.8278 C.ar    1  UNL1        0.1480
      4 N          63.1327   85.4504   16.1286 N.ar    1  UNL1       -0.2277
      5 C          62.8909   86.3166   17.3291 C.ar    1  UNL1        0.1019
      6 C          63.0651   87.8031   17.2287 C.ar    1  UNL1        0.0395
      7 C          63.4811   88.4233   15.9278 C.ar    1  UNL1        0.0830
      8 C          63.7228   87.5570   14.7274 C.ar    1  UNL1        0.1295
      9 N          64.1217   88.4461   13.5869 N.ar    1  UNL1       -0.2281
     10 C          64.1263   89.8618   14.0826 C.ar    1  UNL1        0.1209
     11 C          64.4671   91.0782   13.2736 C.3     1  UNL1        0.0718
     12 N          63.7304   89.8477   15.5294 N.ar    1  UNL1       -0.3128
     13 C          63.6057   91.0474   16.4211 C.3     1  UNL1        0.1316
     14 C          62.6400   84.7855   12.7606 C.3     1  UNL1        0.1148
     15 C          64.2679   82.8683   11.1253 C.3     1  UNL1        0.0307
     16 C          63.5367   83.9932   10.4545 C.ar    1  UNL1       -0.0245
     17 C          63.6195   84.1596    8.9660 C.ar    1  UNL1       -0.0045
     18 C          62.8883   85.2845    8.2953 C.ar    1  UNL1       -0.0007
     19 C          62.0744   86.2431    9.1130 C.ar    1  UNL1       -0.0045
     20 C          61.9916   86.0768   10.6014 C.ar    1  UNL1       -0.0245
     21 C          61.1777   87.0354   11.4191 C.3     1  UNL1        0.0307
     22 C          62.7228   84.9518   11.2722 C.ar    1  UNL1       -0.0105
@<TRIPOS>BOND
     1    15    16    1
     2    16    17   ar
     3    17    18   ar
     4    18    19   ar
     5    19    20   ar
     6    20    21    1
     7    20    22   ar
     8    22    14    1
     9    14     1    1
    10     1     3    1
    11     3     4   ar
    12     4     5   ar
    13     5     6   ar
    14     6     7   ar
    15     7     8   ar
    16     8     9   ar
    17     9    10   ar
    18    10    11    1
    19    10    12   ar
    20    12    13    1
    21    22    16   ar
    22     8     3   ar
    23    12     7   ar
    24     1     2    1
@<TRIPOS>MOLECULE
*****
 22 24 0 0 0
SMALL
GASTEIGER

@<TRIPOS>ATOM
      1 N          63.8748   84.9655   14.3332 N.pl3   1  UNL1       -0.3132
      2 H          64.7980   84.6448   14.2144 H       1  UNL1        0.1485
      3 C          63.5558   85.9464   15.4223 C.ar    1  UNL1        0.1480
      4 N          63.0500   85.4578   16.7472 N.ar    1  UNL1       -0.2277
      5 C          62.7311   86.4387   17.8363 C.ar    1  UNL1        0.1019
      6 C          62.9180   87.9082   17.6004 C.ar    1  UNL1        0.0395
      7 C          63.4238   88.3968   16.2755 C.ar    1  UNL1        0.0830
      8 C          63.7427   87.4159   15.1865 C.ar    1  UNL1        0.1295
      9 N          64.2216   88.1880   13.9929 N.ar    1  UNL1       -0.2281
     10 C          64.1987   89.6460   14.3443 C.ar    1  UNL1        0.1209
     11 C          64.5986   90.7766   13.4432 C.3     1  UNL1        0.0718
     12 N          63.7056   89.7751   15.7551 N.ar    1  UNL1       -0.3128
     13 C          63.5258   91.0573   16.5124 C.3     1  UNL1        0.1316
     14 C          62.7871   84.4733   13.4250 C.3     1  UNL1        0.1148
     15 C          61.5900   86.5274   11.5955 C.3     1  UNL1        0.0307
     16 C          62.4264   85.4173   11.0316 C.ar    1  UNL1       -0.0245
     17 C          62.6643   85.3342    9.5529 C.ar    1  UNL1       -0.0045
     18 C          63.5007   84.2241    8.9890 C.ar    1  UNL1       -0.0007
     19 C          64.0992   83.1970    9.9038 C.ar    1  UNL1       -0.0045
     20 C          63.8614   83.2800   11.3824 C.ar    1  UNL1       -0.0245
     21 C          64.4600   82.2530   12.2972 C.3     1  UNL1        0.0307
     22 C          63.0250   84.3902   11.9464 C.ar    1  UNL1       -0.0105
@<TRIPOS>BOND
     1    15    16    1
     2    16    17   ar
     3    17    18   ar
     4    18    19   ar
     5    19    20   ar
     6    20    21    1
     7    20    22   ar
     8    22    14    1
     9    14     1    1
    10     1     3    1
    11     3     4   ar
    12     4     5   ar
    13     5     6   ar
    14     6     7   ar
    15     7     8   ar
    16     8     9   ar
    17     9    10   ar
    18    10    11    1
    19    10    12   ar
    20    12    13    1
    21    22    16   ar
    22     8     3   ar
    23    12     7   ar
    24     1     2    1
@<TRIPOS>MOLECULE
*****
 22 24 0 0 0
SMALL
GASTEIGER

@<TRIPOS>ATOM
      1 N          62.2710   85.7639   12.5320 N.pl3   1  UNL1       -0.3132
      2 H          61.5202   85.5076   13.1150 H       1  UNL1        0.1485
      3 C          62.2527   87.0855   11.8226 C.ar    1  UNL1        0.1480
      4 N          63.0861   88.2229   12.3342 N.ar    1  UNL1       -0.2277
      5 C          63.0677   89.5444   11.6249 C.ar    1  UNL1        0.1019
      6 C          62.2160   89.7285   10.4039 C.ar    1  UNL1        0.0395
      7 C          61.3826   88.5911    9.8924 C.ar    1  UNL1        0.0830
      8 C          61.4010   87.2696   10.6017 C.ar    1  UNL1        0.1295
      9 N          60.4814   86.3376    9.8696 N.ar    1  UNL1       -0.2281
     10 C          59.8947   87.0833    8.7078 C.ar    1  UNL1        0.1209
     11 C          58.9218   86.5328    7.7075 C.3     1  UNL1        0.0718
     12 N          60.4517   88.4759    8.7219 N.ar    1  UNL1       -0.3128
     13 C          60.1336   89.5627    7.7381 C.3     1  UNL1        0.1316
     14 C          63.4334   84.8327   12.3531 C.3     1  UNL1        0.1148
     15 C          63.9362   83.3176    9.8131 C.3     1  UNL1        0.0307
     16 C          63.4582   82.5932   11.0364 C.ar    1  UNL1       -0.0245
     17 C          63.2316   81.1110   10.9898 C.ar    1  UNL1       -0.0045
     18 C          62.7537   80.3866   12.2132 C.ar    1  UNL1       -0.0007
     19 C          62.5023   81.1441   13.4832 C.ar    1  UNL1       -0.0045
     20 C          62.7288   82.6261   13.5298 C.ar    1  UNL1       -0.0245
     21 C          62.4774   83.3837   14.7998 C.3     1  UNL1        0.0307
     22 C          63.2068   83.3507   12.3064 C.ar    1  UNL1       -0.0105
@<TRIPOS>BOND
     1    15    16    1
     2    16    17   ar
     3    17    18   ar
     4    18    19   ar
     5    19    20   ar
     6    20    21    1
     7    20    22   ar
     8    22    14    1
     9    14     1    1
    10     1     3    1
    11     3     4   ar
    12     4     5   ar
    13     5     6   ar
    14     6     7   ar
    15     7     8   ar
    16     8     9   ar
    17     9    10   ar
    18    10    11    1
    19    10    12   ar
    20    12    13    1
    21    22    16   ar
    22     8     3   ar
    23    12     7   ar
    24     1     2    1
