@<TRIPOS>MOLECULE
*****
 45 50 0 0 0
SMALL
GASTEIGER

@<TRIPOS>ATOM
      1 C          59.7661   90.7047    5.7353 C.ar    1  UNL1        0.1348
      2 C          58.9303   89.4699    5.8981 C.ar    1  UNL1        0.0346
      3 C          59.0641   88.6313    7.1345 C.ar    1  UNL1        0.0065
      4 C          60.0337   89.0275    8.2082 C.ar    1  UNL1        0.0432
      5 C          60.8695   90.2623    8.0454 C.ar    1  UNL1        0.1256
      6 N          60.7357   91.1010    6.8089 N.ar    1  UNL1       -0.2222
      7 C          60.1674   88.1889    9.4447 C.ar    1  UNL1        0.0851
      8 C          60.6831   86.7816    9.5040 C.ar    1  UNL1        0.1020
      9 N          60.6434   86.3333   10.9349 N.ar    1  UNL1       -0.2264
     10 C          60.1032   87.4635   11.7599 C.ar    1  UNL1        0.1474
     11 C          59.8411   87.5966   13.2308 C.ar    1  UNL1        0.0332
     12 C          59.2849   88.8766   13.7807 C.ar    1  UNL1       -0.0174
     13 C          59.0228   89.0097   15.2516 C.3     1  UNL1        0.0312
     14 C          58.9907   90.0235   12.8598 C.ar    1  UNL1        0.0149
     15 C          59.2528   89.8904   11.3888 C.ar    1  UNL1        0.0811
     16 N          59.8090   88.6104   10.8389 N.ar    1  UNL1       -0.2888
     17 C          61.1556   85.9658    8.3373 C.ar    1  UNL1        0.0574
     18 C          62.6060   85.6037    8.2135 C.ar    1  UNL1        0.1033
     19 N          63.0785   84.7879    7.0468 N.ar    1  UNL1       -0.2291
     20 C          62.1006   84.3341    6.0038 C.ar    1  UNL1        0.1396
     21 C          62.5730   83.5183    4.8371 C.3     1  UNL1        0.0737
     22 N          60.6502   84.6962    6.1276 N.ar    1  UNL1       -0.2291
     23 C          60.1777   85.5120    7.2943 C.ar    1  UNL1        0.1033
     24 C          60.8471   91.8798    3.6857 C.2     1  UNL1        0.2414
     25 O          62.1957   91.3776    4.1090 O.2     1  UNL1       -0.2733
     26 N          59.6323   91.5434    4.4988 N.am    1  UNL1       -0.2682
     27 H          58.7472   91.8730    4.2210 H       1  UNL1        0.1563
     28 C          60.7133   92.7184    2.4492 C.3     1  UNL1        0.1319
     29 C          61.9339   93.3091    1.8079 C.3     1  UNL1        0.0270
     30 C          59.2052   93.0953    0.3676 C.3     1  UNL1        0.0862
     31 N          59.3590   92.9663    1.8541 N.3     1  UNL1       -0.2902
     32 H          58.7629   92.1916    2.1456 H       1  UNL1        0.1237
     33 C          61.8392   90.6586    9.1191 C.1     1  UNL1       -0.0404
     34 C          62.8088   91.0548   10.1928 C.1     1  UNL1       -0.0583
     35 C          63.7785   91.4511   11.2665 C.ar    1  UNL1        0.0420
     36 C          65.0664   92.1278   10.9014 C.ar    1  UNL1        0.0083
     37 C          66.0360   92.5240   11.9751 C.ar    1  UNL1        0.0018
     38 C          65.7177   92.2436   13.4138 C.ar    1  UNL1        0.0137
     39 C          66.6874   92.6398   14.4875 C.ar    1  UNL1        0.0594
     40 C          67.9753   93.3165   14.1224 C.3     1  UNL1        0.0521
     41 N          66.3691   92.3593   15.9263 N.ar    1  UNL1       -0.2481
     42 C          65.0811   91.6826   16.2913 C.ar    1  UNL1        0.0984
     43 C          64.1115   91.2863   15.2176 C.ar    1  UNL1        0.0207
     44 C          64.4298   91.5668   13.7789 C.ar    1  UNL1        0.0033
     45 C          63.4602   91.1706   12.7052 C.ar    1  UNL1        0.0083
@<TRIPOS>BOND
     1    30    31    1
     2    31    28    1
     3    28    29    1
     4    28    24    1
     5    24    25    2
     6    24    26   am
     7    26     1    1
     8     1     2   ar
     9     2     3   ar
    10     3     4   ar
    11     4     7    1
    12     7     8   ar
    13     8    17    1
    14    17    18   ar
    15    18    19   ar
    16    19    20   ar
    17    20    21    1
    18    20    22   ar
    19    22    23   ar
    20     8     9   ar
    21     9    10   ar
    22    10    11   ar
    23    11    12   ar
    24    12    13    1
    25    12    14   ar
    26    14    15   ar
    27    15    16   ar
    28     4     5   ar
    29     5    33    1
    30    33    34    3
    31    34    35    1
    32    35    36   ar
    33    36    37   ar
    34    37    38   ar
    35    38    39   ar
    36    39    40    1
    37    39    41   ar
    38    41    42   ar
    39    42    43   ar
    40    43    44   ar
    41    44    45   ar
    42     5     6   ar
    43     6     1   ar
    44    16     7   ar
    45    45    35   ar
    46    23    17   ar
    47    16    10   ar
    48    44    38   ar
    49    31    32    1
    50    26    27    1
@<TRIPOS>MOLECULE
*****
 45 50 0 0 0
SMALL
GASTEIGER

@<TRIPOS>ATOM
      1 C          59.4865   89.9625    7.5358 C.ar    1  UNL1        0.1348
      2 C          59.2763   88.4832    7.4031 C.ar    1  UNL1        0.0346
      3 C          60.0817   87.5333    8.2391 C.ar    1  UNL1        0.0065
      4 C          61.0973   88.0625    9.2078 C.ar    1  UNL1        0.0432
      5 C          61.3075   89.5417    9.3405 C.ar    1  UNL1        0.1256
      6 N          60.5021   90.4917    8.5045 N.ar    1  UNL1       -0.2222
      7 C          61.9027   87.1125   10.0438 C.ar    1  UNL1        0.0851
      8 C          62.4437   85.7865    9.5978 C.ar    1  UNL1        0.1020
      9 N          63.1838   85.1762   10.7509 N.ar    1  UNL1       -0.2264
     10 C          63.1003   86.1251   11.9096 C.ar    1  UNL1        0.1474
     11 C          63.6429   86.0541   13.3062 C.ar    1  UNL1        0.0332
     12 C          63.3938   87.1797   14.2658 C.ar    1  UNL1       -0.0174
     13 C          63.9364   87.1087   15.6624 C.3     1  UNL1        0.0312
     14 C          62.6020   88.3765   13.8288 C.ar    1  UNL1        0.0149
     15 C          62.0594   88.4475   12.4322 C.ar    1  UNL1        0.0811
     16 N          62.3085   87.3218   11.4726 N.ar    1  UNL1       -0.2888
     17 C          62.2742   85.1776    8.2374 C.ar    1  UNL1        0.0574
     18 C          63.4802   84.8249    7.4180 C.ar    1  UNL1        0.1033
     19 N          63.3108   84.2160    6.0577 N.ar    1  UNL1       -0.2291
     20 C          61.9355   83.9597    5.5167 C.ar    1  UNL1        0.1396
     21 C          61.7660   83.3508    4.1564 C.3     1  UNL1        0.0737
     22 N          60.7295   84.3123    6.3361 N.ar    1  UNL1       -0.2291
     23 C          60.8990   84.9212    7.6964 C.ar    1  UNL1        0.1033
     24 C          59.1449   91.2759    5.3203 C.2     1  UNL1        0.2414
     25 O          60.4141   90.6894    4.7769 O.2     1  UNL1       -0.2733
     26 N          58.6812   90.9124    6.6998 N.am    1  UNL1       -0.2682
     27 H          57.8482   91.2974    7.0564 H       1  UNL1        0.1563
     28 C          58.3395   92.2259    4.4843 C.3     1  UNL1        0.1319
     29 C          56.8414   92.1504    4.4961 C.3     1  UNL1        0.0270
     30 C          59.6651   92.8474    2.3380 C.3     1  UNL1        0.0862
     31 N          59.0321   93.2513    3.6366 N.3     1  UNL1       -0.2902
     32 H          58.3401   93.9676    3.4166 H       1  UNL1        0.1237
     33 C          62.3232   90.0711   10.3092 C.1     1  UNL1       -0.0404
     34 C          63.3388   90.6003   11.2779 C.1     1  UNL1       -0.0583
     35 C          64.3544   91.1296   12.2466 C.ar    1  UNL1        0.0420
     36 C          65.7112   91.5436   11.7593 C.ar    1  UNL1        0.0083
     37 C          66.7268   92.0729   12.7280 C.ar    1  UNL1        0.0018
     38 C          66.3855   92.1882   14.1841 C.ar    1  UNL1        0.0137
     39 C          67.4011   92.7175   15.1528 C.ar    1  UNL1        0.0594
     40 C          68.7580   93.1315   14.6654 C.3     1  UNL1        0.0521
     41 N          67.0598   92.8329   16.6089 N.ar    1  UNL1       -0.2481
     42 C          65.7029   92.4189   17.0963 C.ar    1  UNL1        0.0984
     43 C          64.6874   91.8896   16.1275 C.ar    1  UNL1        0.0207
     44 C          65.0286   91.7742   14.6714 C.ar    1  UNL1        0.0033
     45 C          64.0131   91.2450   13.7027 C.ar    1  UNL1        0.0083
@<TRIPOS>BOND
     1    30    31    1
     2    31    28    1
     3    28    29    1
     4    28    24    1
     5    24    25    2
     6    24    26   am
     7    26     1    1
     8     1     2   ar
     9     2     3   ar
    10     3     4   ar
    11     4     7    1
    12     7     8   ar
    13     8    17    1
    14    17    18   ar
    15    18    19   ar
    16    19    20   ar
    17    20    21    1
    18    20    22   ar
    19    22    23   ar
    20     8     9   ar
    21     9    10   ar
    22    10    11   ar
    23    11    12   ar
    24    12    13    1
    25    12    14   ar
    26    14    15   ar
    27    15    16   ar
    28     4     5   ar
    29     5    33    1
    30    33    34    3
    31    34    35    1
    32    35    36   ar
    33    36    37   ar
    34    37    38   ar
    35    38    39   ar
    36    39    40    1
    37    39    41   ar
    38    41    42   ar
    39    42    43   ar
    40    43    44   ar
    41    44    45   ar
    42     5     6   ar
    43     6     1   ar
    44    16     7   ar
    45    45    35   ar
    46    23    17   ar
    47    16    10   ar
    48    44    38   ar
    49    31    32    1
    50    26    27    1
@<TRIPOS>MOLECULE
*****
 45 50 0 0 0
SMALL
GASTEIGER

@<TRIPOS>ATOM
      1 C          60.8306   87.8876    8.7998 C.ar    1  UNL1        0.1348
      2 C          60.5013   86.5616    9.4188 C.ar    1  UNL1        0.0346
      3 C          61.0954   86.1839   10.7433 C.ar    1  UNL1        0.0065
      4 C          62.0190   87.1321   11.4488 C.ar    1  UNL1        0.0432
      5 C          62.3483   88.4581   10.8299 C.ar    1  UNL1        0.1256
      6 N          61.7542   88.8359    9.5054 N.ar    1  UNL1       -0.2222
      7 C          62.6131   86.7544   12.7733 C.ar    1  UNL1        0.0851
      8 C          63.1503   85.4043   13.1458 C.ar    1  UNL1        0.1020
      9 N          63.6436   85.4759   14.5606 N.ar    1  UNL1       -0.2264
     10 C          63.4113   86.8702   15.0625 C.ar    1  UNL1        0.1474
     11 C          63.6974   87.5225   16.3826 C.ar    1  UNL1        0.0332
     12 C          63.3466   88.9648   16.5981 C.ar    1  UNL1       -0.0174
     13 C          63.6327   89.6171   17.9182 C.3     1  UNL1        0.0312
     14 C          62.7097   89.7551   15.4935 C.ar    1  UNL1        0.0149
     15 C          62.4236   89.1028   14.1734 C.ar    1  UNL1        0.0811
     16 N          62.7744   87.6603   13.9579 N.ar    1  UNL1       -0.2888
     17 C          63.1877   84.1950   12.2592 C.ar    1  UNL1        0.0574
     18 C          63.9475   84.2359   10.9664 C.ar    1  UNL1        0.1033
     19 N          63.9848   83.0265   10.0798 N.ar    1  UNL1       -0.2291
     20 C          63.2625   81.7763   10.4859 C.ar    1  UNL1        0.1396
     21 C          63.2998   80.5669    9.5993 C.3     1  UNL1        0.0737
     22 N          62.5027   81.7353   11.7786 N.ar    1  UNL1       -0.2291
     23 C          62.4654   82.9447   12.6652 C.ar    1  UNL1        0.1033
     24 C          59.6510   89.6323    7.2785 C.2     1  UNL1        0.2414
     25 O          59.6596   90.6215    8.4061 O.2     1  UNL1       -0.2733
     26 N          60.2365   88.2654    7.4754 N.am    1  UNL1       -0.2682
     27 H          60.2308   87.6162    6.7353 H       1  UNL1        0.1563
     28 C          59.0568   90.0100    5.9540 C.3     1  UNL1        0.1319
     29 C          59.9436   90.4920    4.8443 C.3     1  UNL1        0.0270
     30 C          56.8182   91.0652    5.1633 C.3     1  UNL1        0.0862
     31 N          57.5759   89.9058    5.7392 N.3     1  UNL1       -0.2902
     32 H          57.4241   89.1148    5.1134 H       1  UNL1        0.1237
     33 C          63.2719   89.4065   11.5354 C.1     1  UNL1       -0.0404
     34 C          64.1954   90.3548   12.2410 C.1     1  UNL1       -0.0583
     35 C          65.1190   91.3031   12.9465 C.ar    1  UNL1        0.0420
     36 C          65.1721   92.7444   12.5343 C.ar    1  UNL1        0.0083
     37 C          66.0957   93.6926   13.2399 C.ar    1  UNL1        0.0018
     38 C          66.9661   93.1996   14.3576 C.ar    1  UNL1        0.0137
     39 C          67.8897   94.1480   15.0631 C.ar    1  UNL1        0.0594
     40 C          67.9428   95.5892   14.6509 C.3     1  UNL1        0.0521
     41 N          68.7602   93.6550   16.1808 N.ar    1  UNL1       -0.2481
     42 C          68.7070   92.2136   16.5930 C.ar    1  UNL1        0.0984
     43 C          67.7835   91.2654   15.8874 C.ar    1  UNL1        0.0207
     44 C          66.9130   91.7584   14.7697 C.ar    1  UNL1        0.0033
     45 C          65.9895   90.8101   14.0642 C.ar    1  UNL1        0.0083
@<TRIPOS>BOND
     1    30    31    1
     2    31    28    1
     3    28    29    1
     4    28    24    1
     5    24    25    2
     6    24    26   am
     7    26     1    1
     8     1     2   ar
     9     2     3   ar
    10     3     4   ar
    11     4     7    1
    12     7     8   ar
    13     8    17    1
    14    17    18   ar
    15    18    19   ar
    16    19    20   ar
    17    20    21    1
    18    20    22   ar
    19    22    23   ar
    20     8     9   ar
    21     9    10   ar
    22    10    11   ar
    23    11    12   ar
    24    12    13    1
    25    12    14   ar
    26    14    15   ar
    27    15    16   ar
    28     4     5   ar
    29     5    33    1
    30    33    34    3
    31    34    35    1
    32    35    36   ar
    33    36    37   ar
    34    37    38   ar
    35    38    39   ar
    36    39    40    1
    37    39    41   ar
    38    41    42   ar
    39    42    43   ar
    40    43    44   ar
    41    44    45   ar
    42     5     6   ar
    43     6     1   ar
    44    16     7   ar
    45    45    35   ar
    46    23    17   ar
    47    16    10   ar
    48    44    38   ar
    49    31    32    1
    50    26    27    1
@<TRIPOS>MOLECULE
*****
 45 50 0 0 0
SMALL
GASTEIGER

@<TRIPOS>ATOM
      1 C          61.0358   90.1229    9.2957 C.ar    1  UNL1        0.1348
      2 C          61.5866   91.0362   10.3503 C.ar    1  UNL1        0.0346
      3 C          62.3202   90.4659   11.5279 C.ar    1  UNL1        0.0065
      4 C          62.5030   88.9822   11.6507 C.ar    1  UNL1        0.0432
      5 C          61.9522   88.0688   10.5961 C.ar    1  UNL1        0.1256
      6 N          61.2186   88.6392    9.4186 N.ar    1  UNL1       -0.2222
      7 C          63.2366   88.4119   12.8283 C.ar    1  UNL1        0.0851
      8 C          64.3197   89.0964   13.6082 C.ar    1  UNL1        0.1020
      9 N          64.7684   88.1645   14.6946 N.ar    1  UNL1       -0.2264
     10 C          63.9627   86.9040   14.5861 C.ar    1  UNL1        0.1474
     11 C          63.9687   85.6367   15.3885 C.ar    1  UNL1        0.0332
     12 C          63.0280   84.5223   15.0375 C.ar    1  UNL1       -0.0174
     13 C          63.0340   83.2550   15.8399 C.3     1  UNL1        0.0312
     14 C          62.0812   84.6751   13.8841 C.ar    1  UNL1        0.0149
     15 C          62.0752   85.9424   13.0816 C.ar    1  UNL1        0.0811
     16 N          63.0160   87.0569   13.4326 N.ar    1  UNL1       -0.2888
     17 C          64.8594   90.4715   13.3476 C.ar    1  UNL1        0.0574
     18 C          65.3621   91.3083   14.4866 C.ar    1  UNL1        0.1033
     19 N          65.9018   92.6834   14.2259 N.ar    1  UNL1       -0.2291
     20 C          65.9387   93.2217   12.8264 C.ar    1  UNL1        0.1396
     21 C          66.4784   94.5968   12.5657 C.3     1  UNL1        0.0737
     22 N          65.4360   92.3850   11.6875 N.ar    1  UNL1       -0.2291
     23 C          64.8963   91.0099   11.9481 C.ar    1  UNL1        0.1033
     24 C          59.6364   89.7776    7.1342 C.2     1  UNL1        0.2414
     25 O          59.7041   88.2916    7.3277 O.2     1  UNL1       -0.2733
     26 N          60.3022   90.6932    8.1182 N.am    1  UNL1       -0.2682
     27 H          60.2578   91.6684    7.9912 H       1  UNL1        0.1563
     28 C          58.9027   90.3479    5.9566 C.3     1  UNL1        0.1319
     29 C          59.6622   91.0372    4.8620 C.3     1  UNL1        0.0270
     30 C          56.6223   91.2182    5.0667 C.3     1  UNL1        0.0862
     31 N          57.4098   90.2290    5.8738 N.3     1  UNL1       -0.2902
     32 H          57.2089   89.3069    5.4869 H       1  UNL1        0.1237
     33 C          62.1350   86.5850   10.7190 C.1     1  UNL1       -0.0404
     34 C          62.3178   85.1013   10.8418 C.1     1  UNL1       -0.0583
     35 C          62.5006   83.6175   10.9647 C.ar    1  UNL1        0.0420
     36 C          63.0478   82.8312    9.8105 C.ar    1  UNL1        0.0083
     37 C          63.2306   81.3475    9.9334 C.ar    1  UNL1        0.0018
     38 C          62.8662   80.6501   11.2104 C.ar    1  UNL1        0.0137
     39 C          63.0490   79.1663   11.3333 C.ar    1  UNL1        0.0594
     40 C          63.5962   78.3800   10.1791 C.3     1  UNL1        0.0521
     41 N          62.6845   78.4690   12.6103 N.ar    1  UNL1       -0.2481
     42 C          62.1372   79.2554   13.7645 C.ar    1  UNL1        0.0984
     43 C          61.9544   80.7391   13.6417 C.ar    1  UNL1        0.0207
     44 C          62.3189   81.4365   12.3646 C.ar    1  UNL1        0.0033
     45 C          62.1361   82.9202   12.2417 C.ar    1  UNL1        0.0083
@<TRIPOS>BOND
     1    30    31    1
     2    31    28    1
     3    28    29    1
     4    28    24    1
     5    24    25    2
     6    24    26   am
     7    26     1    1
     8     1     2   ar
     9     2     3   ar
    10     3     4   ar
    11     4     7    1
    12     7     8   ar
    13     8    17    1
    14    17    18   ar
    15    18    19   ar
    16    19    20   ar
    17    20    21    1
    18    20    22   ar
    19    22    23   ar
    20     8     9   ar
    21     9    10   ar
    22    10    11   ar
    23    11    12   ar
    24    12    13    1
    25    12    14   ar
    26    14    15   ar
    27    15    16   ar
    28     4     5   ar
    29     5    33    1
    30    33    34    3
    31    34    35    1
    32    35    36   ar
    33    36    37   ar
    34    37    38   ar
    35    38    39   ar
    36    39    40    1
    37    39    41   ar
    38    41    42   ar
    39    42    43   ar
    40    43    44   ar
    41    44    45   ar
    42     5     6   ar
    43     6     1   ar
    44    16     7   ar
    45    45    35   ar
    46    23    17   ar
    47    16    10   ar
    48    44    38   ar
    49    31    32    1
    50    26    27    1
@<TRIPOS>MOLECULE
*****
 45 50 0 0 0
SMALL
GASTEIGER

@<TRIPOS>ATOM
      1 C          64.5981   90.3831   13.5146 C.ar    1  UNL1        0.1348
      2 C          63.9041   91.2268   12.4867 C.ar    1  UNL1        0.0346
      3 C          63.0086   90.5841   11.4694 C.ar    1  UNL1        0.0065
      4 C          62.8070   89.0977   11.4800 C.ar    1  UNL1        0.0432
      5 C          63.5010   88.2541   12.5078 C.ar    1  UNL1        0.1256
      6 N          64.3966   88.8968   13.5252 N.ar    1  UNL1       -0.2222
      7 C          61.9115   88.4550   10.4626 C.ar    1  UNL1        0.0851
      8 C          60.5264   88.9018   10.0997 C.ar    1  UNL1        0.1020
      9 N          60.0026   87.9756    9.0424 N.ar    1  UNL1       -0.2264
     10 C          61.0641   86.9564    8.7518 C.ar    1  UNL1        0.1474
     11 C          61.1089   85.7968    7.8014 C.ar    1  UNL1        0.0332
     12 C          62.3334   84.9335    7.7288 C.ar    1  UNL1       -0.0174
     13 C          62.3782   83.7739    6.7784 C.3     1  UNL1        0.0312
     14 C          63.5132   85.2297    8.6065 C.ar    1  UNL1        0.0149
     15 C          63.4684   86.3893    9.5570 C.ar    1  UNL1        0.0811
     16 N          62.2439   87.2527    9.6296 N.ar    1  UNL1       -0.2888
     17 C          59.7935   90.0697   10.6903 C.ar    1  UNL1        0.0574
     18 C          60.3880   91.4449   10.6135 C.ar    1  UNL1        0.1033
     19 N          59.6551   92.6128   11.2042 N.ar    1  UNL1       -0.2291
     20 C          58.3279   92.4057   11.8717 C.ar    1  UNL1        0.1396
     21 C          57.5951   93.5737   12.4623 C.3     1  UNL1        0.0737
     22 N          57.7335   91.0307   11.9485 N.ar    1  UNL1       -0.2291
     23 C          58.4663   89.8627   11.3578 C.ar    1  UNL1        0.1033
     24 C          66.6491   91.8720   14.0861 C.2     1  UNL1        0.2414
     25 O          66.9091   92.0755   12.6228 O.2     1  UNL1       -0.2733
     26 N          65.4936   91.0258   14.5320 N.am    1  UNL1       -0.2682
     27 H          65.3230   90.8923   15.4923 H       1  UNL1        0.1563
     28 C          67.5447   92.5147   15.1034 C.3     1  UNL1        0.1319
     29 C          67.0404   92.7677   16.4933 C.3     1  UNL1        0.0270
     30 C          69.7603   93.7510   15.6623 C.3     1  UNL1        0.0862
     31 N          68.9444   92.9044   14.7309 N.3     1  UNL1       -0.2902
     32 H          69.4636   92.0378   14.5896 H       1  UNL1        0.1237
     33 C          63.2995   86.7677   12.5184 C.1     1  UNL1       -0.0404
     34 C          63.0981   85.2813   12.5290 C.1     1  UNL1       -0.0583
     35 C          62.8966   83.7949   12.5396 C.ar    1  UNL1        0.0420
     36 C          62.4625   83.1059   13.7992 C.ar    1  UNL1        0.0083
     37 C          62.2610   81.6195   13.8098 C.ar    1  UNL1        0.0018
     38 C          62.4936   80.8222   12.5607 C.ar    1  UNL1        0.0137
     39 C          62.2921   79.3358   12.5713 C.ar    1  UNL1        0.0594
     40 C          61.8580   78.6468   13.8309 C.3     1  UNL1        0.0521
     41 N          62.5246   78.5386   11.3222 N.ar    1  UNL1       -0.2481
     42 C          62.9587   79.2277   10.0625 C.ar    1  UNL1        0.0984
     43 C          63.1602   80.7140   10.0519 C.ar    1  UNL1        0.0207
     44 C          62.9276   81.5113   11.3010 C.ar    1  UNL1        0.0033
     45 C          63.1291   82.9976   11.2905 C.ar    1  UNL1        0.0083
@<TRIPOS>BOND
     1    30    31    1
     2    31    28    1
     3    28    29    1
     4    28    24    1
     5    24    25    2
     6    24    26   am
     7    26     1    1
     8     1     2   ar
     9     2     3   ar
    10     3     4   ar
    11     4     7    1
    12     7     8   ar
    13     8    17    1
    14    17    18   ar
    15    18    19   ar
    16    19    20   ar
    17    20    21    1
    18    20    22   ar
    19    22    23   ar
    20     8     9   ar
    21     9    10   ar
    22    10    11   ar
    23    11    12   ar
    24    12    13    1
    25    12    14   ar
    26    14    15   ar
    27    15    16   ar
    28     4     5   ar
    29     5    33    1
    30    33    34    3
    31    34    35    1
    32    35    36   ar
    33    36    37   ar
    34    37    38   ar
    35    38    39   ar
    36    39    40    1
    37    39    41   ar
    38    41    42   ar
    39    42    43   ar
    40    43    44   ar
    41    44    45   ar
    42     5     6   ar
    43     6     1   ar
    44    16     7   ar
    45    45    35   ar
    46    23    17   ar
    47    16    10   ar
    48    44    38   ar
    49    31    32    1
    50    26    27    1
