@<TRIPOS>MOLECULE
*****
 53 59 0 0 0
SMALL
GASTEIGER

@<TRIPOS>ATOM
      1 C          58.4483   90.3381    6.0110 C.3     1  UNL1        0.0494
      2 C          59.4681   89.2808    6.3144 C.3     1  UNL1        0.0284
      3 C          59.1935   88.2563    7.3751 C.3     1  UNL1        0.1076
      4 N          61.6286   89.7261   11.9750 N.ar    1  UNL1       -0.2473
      5 C          60.4976   90.2936   11.1696 C.ar    1  UNL1        0.3537
      6 O          59.8012   91.5402   11.6291 O.2     1  UNL1       -0.2443
      7 N          60.0629   89.6145    9.9048 N.ar    1  UNL1       -0.1746
      8 C          60.7592   88.3679    9.4453 C.ar    1  UNL1        0.1531
      9 N          60.3245   87.6888    8.1804 N.ar    1  UNL1       -0.3125
     10 C          61.0209   86.4422    7.7210 C.ar    1  UNL1        0.0610
     11 C          60.5862   85.7631    6.4561 C.ar    1  UNL1        0.0172
     12 C          61.2825   84.5166    5.9967 C.ar    1  UNL1        0.0015
     13 C          62.4136   83.9491    6.8020 C.ar    1  UNL1        0.0001
     14 C          62.8483   84.6282    8.0669 C.ar    1  UNL1        0.0014
     15 C          62.1520   85.8748    8.5264 C.ar    1  UNL1        0.0161
     16 C          62.5866   86.5539    9.7912 C.ar    1  UNL1        0.0092
     17 C          61.8903   87.8004   10.2507 C.ar    1  UNL1        0.0905
     18 C          62.3250   88.4795   11.5155 C.ar    1  UNL1        0.2671
     19 O          63.4561   87.9121   12.3209 O.2     1  UNL1       -0.2667
     20 C          62.0634   90.4052   13.2399 C.3     1  UNL1        0.1142
     21 C          63.4763   90.8875   13.3848 C.3     1  UNL1        0.0364
     22 C          64.3323   90.3757   14.5052 C.3     1  UNL1        0.1116
     23 C          63.6941   89.8488   15.7562 C.2     1  UNL1        0.3170
     24 O          63.2176   90.8005   16.8132 O.2     1  UNL1       -0.2501
     25 O          63.5325   88.3703   15.9503 O.3     1  UNL1       -0.4485
     26 C          62.8871   86.3774   17.4871 C.3     1  UNL1        0.0513
     27 C          62.8522   87.8451   17.1797 C.3     1  UNL1        0.2086
     28 C          58.8188   91.5145    5.1573 C.3     1  UNL1        0.2085
     29 O          60.1874   91.5984    4.5491 O.3     1  UNL1       -0.4485
     30 C          60.4432   92.5328    3.4039 C.2     1  UNL1        0.3173
     31 O          59.7571   93.8659    3.3559 O.2     1  UNL1       -0.2501
     32 C          61.3850   92.1341    2.3066 C.3     1  UNL1        0.1136
     33 C          61.1472   92.6102    0.9042 C.3     1  UNL1        0.0295
     34 C          59.8016   92.4260    0.2677 C.3     1  UNL1        0.0046
     35 C          59.5638   92.9021   -1.1348 C.3     1  UNL1        0.0007
     36 C          58.2180   92.7178   -1.7713 C.3     1  UNL1        0.0024
     37 C          56.9444   92.1070   -1.2670 C.3     1  UNL1        0.0026
     38 C          55.9193   92.2055   -2.3577 C.3     1  UNL1        0.0292
     39 C          56.5596   92.8773   -3.5361 C.3     1  UNL1        0.1104
     40 O          55.8956   93.1794   -4.8468 O.3     1  UNL1       -0.3845
     41 C          57.9802   93.1940   -3.1737 C.3     1  UNL1        0.0269
     42 C          59.0882   93.8543   -3.9396 C.3     1  UNL1        0.0024
     43 C          60.4338   94.0386   -3.3030 C.3     1  UNL1        0.0004
     44 C          60.6716   93.5625   -1.9006 C.3     1  UNL1        0.0035
     45 C          62.0173   93.7467   -1.2640 C.3     1  UNL1        0.0157
     46 C          61.7795   94.2229   -2.6665 C.3     1  UNL1        0.0041
     47 C          63.1252   94.4071   -2.0299 C.3     1  UNL1        0.0118
     48 C          64.4708   94.5913   -1.3933 C.3     1  UNL1        0.0694
     49 C          64.7086   94.1152    0.0091 C.2     1  UNL1        0.1725
     50 O          66.0544   94.2995    0.6456 O.2     1  UNL1       -0.2914
     51 C          63.6008   93.4548    0.7749 C.2     1  UNL1        0.0289
     52 C          62.2551   93.2706    0.1384 C.2     1  UNL1       -0.0417
     53 H          54.9759   92.8721   -4.8218 H       1  UNL1        0.2103
@<TRIPOS>BOND
     1    26    27    1
     2    27    25    1
     3    25    23    1
     4    23    24    2
     5    23    22    1
     6    22    21    1
     7    21    20    1
     8    20     4    1
     9     4     5   ar
    10     5     6    2
    11     5     7   ar
    12     7     8   ar
    13     8     9   ar
    14     9     3    1
    15     3     2    1
    16     2     1    1
    17     1    28    1
    18    28    29    1
    19    29    30    1
    20    30    31    2
    21    30    32    1
    22    33    32    1
    23    33    34    1
    24    34    35    1
    25    35    36    1
    26    36    37    1
    27    37    38    1
    28    38    39    1
    29    39    40    1
    30    39    41    1
    31    41    42    1
    32    42    43    1
    33    43    44    1
    34    44    45    1
    35    45    46    1
    36    45    47    1
    37    47    48    1
    38    48    49    1
    39    49    50    2
    40    49    51    1
    41    51    52    2
    42     9    10   ar
    43    10    11   ar
    44    11    12   ar
    45    12    13   ar
    46    13    14   ar
    47    14    15   ar
    48    15    16   ar
    49    16    17   ar
    50    17    18   ar
    51    18    19    2
    52    18     4   ar
    53    17     8    1
    54    52    33    1
    55    15    10   ar
    56    44    35    1
    57    52    45    1
    58    41    36    1
    59    40    53    1
@<TRIPOS>MOLECULE
*****
 53 59 0 0 0
SMALL
GASTEIGER

@<TRIPOS>ATOM
      1 C          58.4206   90.2563    5.9372 C.3     1  UNL1        0.0494
      2 C          59.4978   89.2997    6.3548 C.3     1  UNL1        0.0284
      3 C          59.2128   88.2565    7.3943 C.3     1  UNL1        0.1076
      4 N          61.6362   89.6633   12.0201 N.ar    1  UNL1       -0.2473
      5 C          60.5128   90.2466   11.2153 C.ar    1  UNL1        0.3537
      6 O          59.8228   91.4932   11.6840 O.2     1  UNL1       -0.2443
      7 N          60.0795   89.5832    9.9416 N.ar    1  UNL1       -0.1746
      8 C          60.7695   88.3366    9.4729 C.ar    1  UNL1        0.1531
      9 N          60.3362   87.6732    8.1992 N.ar    1  UNL1       -0.3125
     10 C          61.0262   86.4266    7.7304 C.ar    1  UNL1        0.0610
     11 C          60.5929   85.7633    6.4568 C.ar    1  UNL1        0.0172
     12 C          61.2829   84.5166    5.9880 C.ar    1  UNL1        0.0015
     13 C          62.4063   83.9333    6.7929 C.ar    1  UNL1        0.0001
     14 C          62.8396   84.5967    8.0666 C.ar    1  UNL1        0.0014
     15 C          62.1496   85.8433    8.5353 C.ar    1  UNL1        0.0161
     16 C          62.5829   86.5067    9.8090 C.ar    1  UNL1        0.0092
     17 C          61.8929   87.7533   10.2777 C.ar    1  UNL1        0.0905
     18 C          62.3262   88.4167   11.5513 C.ar    1  UNL1        0.2671
     19 O          63.4496   87.8334   12.3563 O.2     1  UNL1       -0.2667
     20 C          62.0695   90.3267   13.2938 C.3     1  UNL1        0.1142
     21 C          63.4474   90.9090   13.4050 C.3     1  UNL1        0.0364
     22 C          64.2639   90.6731   14.6411 C.3     1  UNL1        0.1116
     23 C          64.5595   91.8106   15.5731 C.2     1  UNL1        0.3170
     24 O          63.6988   92.0334   16.7812 O.2     1  UNL1       -0.2501
     25 O          65.7158   92.7252   15.2969 O.3     1  UNL1       -0.4485
     26 C          68.1640   93.4435   15.7872 C.3     1  UNL1        0.0513
     27 C          67.0636   92.4289   15.8850 C.3     1  UNL1        0.2086
     28 C          58.7569   91.4317    5.0682 C.3     1  UNL1        0.2085
     29 O          60.1541   91.6067    4.5510 O.3     1  UNL1       -0.4485
     30 C          60.4213   92.5515    3.4170 C.2     1  UNL1        0.3173
     31 O          59.7367   93.8856    3.3752 O.2     1  UNL1       -0.2501
     32 C          61.3729   92.1623    2.3249 C.3     1  UNL1        0.1136
     33 C          61.1322   92.6275    0.9193 C.3     1  UNL1        0.0295
     34 C          59.7878   92.4307    0.2839 C.3     1  UNL1        0.0046
     35 C          59.5472   92.8959   -1.1216 C.3     1  UNL1        0.0007
     36 C          58.2027   92.6990   -1.7570 C.3     1  UNL1        0.0024
     37 C          56.9328   92.0836   -1.2487 C.3     1  UNL1        0.0026
     38 C          55.9073   92.1684   -2.3401 C.3     1  UNL1        0.0292
     39 C          56.5434   92.8364   -3.5229 C.3     1  UNL1        0.1104
     40 O          55.8777   93.1256   -4.8356 O.3     1  UNL1       -0.3845
     41 C          57.9620   93.1643   -3.1626 C.3     1  UNL1        0.0269
     42 C          59.0659   93.8265   -3.9328 C.3     1  UNL1        0.0024
     43 C          60.4103   94.0234   -3.2974 C.3     1  UNL1        0.0004
     44 C          60.6509   93.5581   -1.8918 C.3     1  UNL1        0.0035
     45 C          61.9954   93.7550   -1.2564 C.3     1  UNL1        0.0157
     46 C          61.7548   94.2203   -2.6620 C.3     1  UNL1        0.0041
     47 C          63.0992   94.4172   -2.0266 C.3     1  UNL1        0.0118
     48 C          64.4436   94.6140   -1.3912 C.3     1  UNL1        0.0694
     49 C          64.6842   94.1488    0.0143 C.2     1  UNL1        0.1725
     50 O          66.0287   94.3457    0.6497 O.2     1  UNL1       -0.2914
     51 C          63.5805   93.4866    0.7845 C.2     1  UNL1        0.0289
     52 C          62.2361   93.2897    0.1491 C.2     1  UNL1       -0.0417
     53 H          54.9600   92.8127   -4.8086 H       1  UNL1        0.2103
@<TRIPOS>BOND
     1    26    27    1
     2    27    25    1
     3    25    23    1
     4    23    24    2
     5    23    22    1
     6    22    21    1
     7    21    20    1
     8    20     4    1
     9     4     5   ar
    10     5     6    2
    11     5     7   ar
    12     7     8   ar
    13     8     9   ar
    14     9     3    1
    15     3     2    1
    16     2     1    1
    17     1    28    1
    18    28    29    1
    19    29    30    1
    20    30    31    2
    21    30    32    1
    22    33    32    1
    23    33    34    1
    24    34    35    1
    25    35    36    1
    26    36    37    1
    27    37    38    1
    28    38    39    1
    29    39    40    1
    30    39    41    1
    31    41    42    1
    32    42    43    1
    33    43    44    1
    34    44    45    1
    35    45    46    1
    36    45    47    1
    37    47    48    1
    38    48    49    1
    39    49    50    2
    40    49    51    1
    41    51    52    2
    42     9    10   ar
    43    10    11   ar
    44    11    12   ar
    45    12    13   ar
    46    13    14   ar
    47    14    15   ar
    48    15    16   ar
    49    16    17   ar
    50    17    18   ar
    51    18    19    2
    52    18     4   ar
    53    17     8    1
    54    52    33    1
    55    15    10   ar
    56    44    35    1
    57    52    45    1
    58    41    36    1
    59    40    53    1
@<TRIPOS>MOLECULE
*****
 53 59 0 0 0
SMALL
GASTEIGER

@<TRIPOS>ATOM
      1 C          62.7756   84.7960   16.0004 C.3     1  UNL1        0.0494
      2 C          62.0850   84.6066   14.6824 C.3     1  UNL1        0.0284
      3 C          62.1932   85.6606   13.6207 C.3     1  UNL1        0.1076
      4 N          59.8463   87.4805    9.1008 N.ar    1  UNL1       -0.2473
      5 C          59.7678   87.8764   10.5454 C.ar    1  UNL1        0.3537
      6 O          58.8807   89.0109   10.9650 O.2     1  UNL1       -0.2443
      7 N          60.5762   87.1378   11.5705 N.ar    1  UNL1       -0.1746
      8 C          61.4633   86.0033   11.1509 C.ar    1  UNL1        0.1531
      9 N          62.2718   85.2647   12.1761 N.ar    1  UNL1       -0.3125
     10 C          63.1588   84.1302   11.7565 C.ar    1  UNL1        0.0610
     11 C          63.9673   83.3916   12.7816 C.ar    1  UNL1        0.0172
     12 C          64.8543   82.2570   12.3620 C.ar    1  UNL1        0.0015
     13 C          64.9328   81.8611   10.9174 C.ar    1  UNL1        0.0001
     14 C          64.1243   82.5997    9.8922 C.ar    1  UNL1        0.0014
     15 C          63.2373   83.7342   10.3118 C.ar    1  UNL1        0.0161
     16 C          62.4288   84.4728    9.2867 C.ar    1  UNL1        0.0092
     17 C          61.5418   85.6073    9.7063 C.ar    1  UNL1        0.0905
     18 C          60.7333   86.3459    8.6812 C.ar    1  UNL1        0.2671
     19 O          60.8118   85.9500    7.2365 O.2     1  UNL1       -0.2667
     20 C          59.0378   88.2191    8.0756 C.3     1  UNL1        0.1142
     21 C          59.6229   89.4085    7.3737 C.3     1  UNL1        0.0364
     22 C          59.3061   89.6575    5.9287 C.3     1  UNL1        0.1116
     23 C          58.5212   90.8724    5.5316 C.2     1  UNL1        0.3170
     24 O          57.0235   90.8124    5.4754 O.2     1  UNL1       -0.2501
     25 O          59.2341   92.1473    5.1905 O.3     1  UNL1       -0.4485
     26 C          59.7654   92.9059    2.7631 C.3     1  UNL1        0.0513
     27 C          60.1701   92.1931    4.0193 C.3     1  UNL1        0.2086
     28 C          62.5570   86.0539   16.7878 C.3     1  UNL1        0.2085
     29 O          63.5074   87.2052   16.6412 O.3     1  UNL1       -0.4485
     30 C          63.1607   88.3539   15.7411 C.2     1  UNL1        0.3173
     31 O          62.1964   89.4053   16.2044 O.2     1  UNL1       -0.2501
     32 C          63.7783   88.4513   14.3776 C.3     1  UNL1        0.1136
     33 C          64.4320   89.7284   13.9398 C.3     1  UNL1        0.0295
     34 C          65.4697   90.3758   14.8080 C.3     1  UNL1        0.0046
     35 C          66.1234   91.6529   14.3702 C.3     1  UNL1        0.0007
     36 C          67.1612   92.3003   15.2385 C.3     1  UNL1        0.0024
     37 C          67.7399   91.9154   16.5677 C.3     1  UNL1        0.0026
     38 C          68.7512   92.9546   16.9514 C.3     1  UNL1        0.0292
     39 C          68.7975   93.9818   15.8593 C.3     1  UNL1        0.1104
     40 O          69.6729   95.1995   15.8309 O.3     1  UNL1       -0.3845
     41 C          67.8149   93.5774   14.8007 C.3     1  UNL1        0.0269
     42 C          67.4307   94.2071   13.4945 C.3     1  UNL1        0.0024
     43 C          66.3930   93.5597   12.6263 C.3     1  UNL1        0.0004
     44 C          65.7393   92.2826   13.0641 C.3     1  UNL1        0.0035
     45 C          64.7015   91.6352   12.1958 C.3     1  UNL1        0.0157
     46 C          65.3552   92.9123   11.7580 C.3     1  UNL1        0.0041
     47 C          64.3175   92.2649   10.8897 C.3     1  UNL1        0.0118
     48 C          63.2797   91.6175   10.0214 C.3     1  UNL1        0.0694
     49 C          62.6261   90.3404   10.4593 C.2     1  UNL1        0.1725
     50 O          61.5883   89.6930    9.5909 O.2     1  UNL1       -0.2914
     51 C          63.0101   89.7107   11.7654 C.2     1  UNL1        0.0289
     52 C          64.0479   90.3581   12.6336 C.2     1  UNL1       -0.0417
     53 H          70.2144   95.2273   16.6352 H       1  UNL1        0.2103
@<TRIPOS>BOND
     1    26    27    1
     2    27    25    1
     3    25    23    1
     4    23    24    2
     5    23    22    1
     6    22    21    1
     7    21    20    1
     8    20     4    1
     9     4     5   ar
    10     5     6    2
    11     5     7   ar
    12     7     8   ar
    13     8     9   ar
    14     9     3    1
    15     3     2    1
    16     2     1    1
    17     1    28    1
    18    28    29    1
    19    29    30    1
    20    30    31    2
    21    30    32    1
    22    33    32    1
    23    33    34    1
    24    34    35    1
    25    35    36    1
    26    36    37    1
    27    37    38    1
    28    38    39    1
    29    39    40    1
    30    39    41    1
    31    41    42    1
    32    42    43    1
    33    43    44    1
    34    44    45    1
    35    45    46    1
    36    45    47    1
    37    47    48    1
    38    48    49    1
    39    49    50    2
    40    49    51    1
    41    51    52    2
    42     9    10   ar
    43    10    11   ar
    44    11    12   ar
    45    12    13   ar
    46    13    14   ar
    47    14    15   ar
    48    15    16   ar
    49    16    17   ar
    50    17    18   ar
    51    18    19    2
    52    18     4   ar
    53    17     8    1
    54    52    33    1
    55    15    10   ar
    56    44    35    1
    57    52    45    1
    58    41    36    1
    59    40    53    1
@<TRIPOS>MOLECULE
*****
 53 59 0 0 0
SMALL
GASTEIGER

@<TRIPOS>ATOM
      1 C          61.5632   85.6753   10.4791 C.3     1  UNL1        0.0494
      2 C          61.0707   86.2475   11.7752 C.3     1  UNL1        0.0284
      3 C          60.4328   87.6048   11.8016 C.3     1  UNL1        0.1076
      4 N          64.1724   91.4617   12.4255 N.ar    1  UNL1       -0.2473
      5 C          63.6478   90.3691   13.3092 C.ar    1  UNL1        0.3537
      6 O          64.1947   90.1979   14.6954 O.2     1  UNL1       -0.2443
      7 N          62.5761   89.4477   12.8067 N.ar    1  UNL1       -0.1746
      8 C          62.0292   89.6189   11.4205 C.ar    1  UNL1        0.1531
      9 N          60.9575   88.6974   10.9180 N.ar    1  UNL1       -0.3125
     10 C          60.4105   88.8686    9.5318 C.ar    1  UNL1        0.0610
     11 C          59.3389   87.9472    9.0293 C.ar    1  UNL1        0.0172
     12 C          58.7919   88.1184    7.6431 C.ar    1  UNL1        0.0015
     13 C          59.3165   89.2110    6.7594 C.ar    1  UNL1        0.0001
     14 C          60.3882   90.1324    7.2619 C.ar    1  UNL1        0.0014
     15 C          60.9352   89.9613    8.6481 C.ar    1  UNL1        0.0161
     16 C          62.0068   90.8827    9.1506 C.ar    1  UNL1        0.0092
     17 C          62.5538   90.7115   10.5368 C.ar    1  UNL1        0.0905
     18 C          63.6254   91.6329   11.0393 C.ar    1  UNL1        0.2671
     19 O          64.1502   92.7255   10.1556 O.2     1  UNL1       -0.2667
     20 C          65.2441   92.3831   12.9280 C.3     1  UNL1        0.1142
     21 C          66.2481   92.9573   11.9729 C.3     1  UNL1        0.0364
     22 C          66.4179   94.4440   11.8671 C.3     1  UNL1        0.1116
     23 C          66.6624   95.0777   10.5298 C.2     1  UNL1        0.3170
     24 O          65.6427   96.0083    9.9431 O.2     1  UNL1       -0.2501
     25 O          67.9266   94.7808    9.7791 O.3     1  UNL1       -0.4485
     26 C          68.7105   92.4040    9.0818 C.3     1  UNL1        0.0513
     27 C          67.9593   93.6658    8.7763 C.3     1  UNL1        0.2086
     28 C          62.4072   86.5110    9.5629 C.3     1  UNL1        0.2085
     29 O          63.5170   85.8763    8.7784 O.3     1  UNL1       -0.4485
     30 C          63.5388   84.3900    8.5777 C.2     1  UNL1        0.3173
     31 O          62.7376   83.7708    7.4709 O.2     1  UNL1       -0.2501
     32 C          64.3616   83.5228    9.4837 C.3     1  UNL1        0.1136
     33 C          63.9213   83.2850   10.8977 C.3     1  UNL1        0.0295
     34 C          64.0110   84.3908   11.9072 C.3     1  UNL1        0.0046
     35 C          63.5707   84.1530   13.3213 C.3     1  UNL1        0.0007
     36 C          63.6605   85.2589   14.3308 C.3     1  UNL1        0.0024
     37 C          64.1368   86.6773   14.2260 C.3     1  UNL1        0.0026
     38 C          63.9910   87.3161   15.5752 C.3     1  UNL1        0.0292
     39 C          63.4244   86.2925   16.5139 C.3     1  UNL1        0.1104
     40 O          63.1162   86.5034   17.9667 O.3     1  UNL1       -0.3845
     41 C          63.2201   85.0211   15.7448 C.3     1  UNL1        0.0269
     42 C          62.6900   83.6774   16.1494 C.3     1  UNL1        0.0024
     43 C          62.6003   82.5716   15.1399 C.3     1  UNL1        0.0004
     44 C          63.0406   82.8094   13.7258 C.3     1  UNL1        0.0035
     45 C          62.9508   81.7035   12.7163 C.3     1  UNL1        0.0157
     46 C          62.5105   81.4657   14.1304 C.3     1  UNL1        0.0041
     47 C          62.4208   80.3599   13.1209 C.3     1  UNL1        0.0118
     48 C          62.3310   79.2541   12.1114 C.3     1  UNL1        0.0694
     49 C          62.7714   79.4919   10.6974 C.2     1  UNL1        0.1725
     50 O          62.6816   78.3860    9.6879 O.2     1  UNL1       -0.2914
     51 C          63.3014   80.8355   10.2928 C.2     1  UNL1        0.0289
     52 C          63.3912   81.9413   11.3023 C.2     1  UNL1       -0.0417
     53 H          63.3403   87.4137   18.2159 H       1  UNL1        0.2103
@<TRIPOS>BOND
     1    26    27    1
     2    27    25    1
     3    25    23    1
     4    23    24    2
     5    23    22    1
     6    22    21    1
     7    21    20    1
     8    20     4    1
     9     4     5   ar
    10     5     6    2
    11     5     7   ar
    12     7     8   ar
    13     8     9   ar
    14     9     3    1
    15     3     2    1
    16     2     1    1
    17     1    28    1
    18    28    29    1
    19    29    30    1
    20    30    31    2
    21    30    32    1
    22    33    32    1
    23    33    34    1
    24    34    35    1
    25    35    36    1
    26    36    37    1
    27    37    38    1
    28    38    39    1
    29    39    40    1
    30    39    41    1
    31    41    42    1
    32    42    43    1
    33    43    44    1
    34    44    45    1
    35    45    46    1
    36    45    47    1
    37    47    48    1
    38    48    49    1
    39    49    50    2
    40    49    51    1
    41    51    52    2
    42     9    10   ar
    43    10    11   ar
    44    11    12   ar
    45    12    13   ar
    46    13    14   ar
    47    14    15   ar
    48    15    16   ar
    49    16    17   ar
    50    17    18   ar
    51    18    19    2
    52    18     4   ar
    53    17     8    1
    54    52    33    1
    55    15    10   ar
    56    44    35    1
    57    52    45    1
    58    41    36    1
    59    40    53    1
@<TRIPOS>MOLECULE
*****
 53 59 0 0 0
SMALL
GASTEIGER

@<TRIPOS>ATOM
      1 C          64.4623   84.7168   15.4472 C.3     1  UNL1        0.0494
      2 C          64.0397   83.2890   15.2665 C.3     1  UNL1        0.0284
      3 C          62.7579   82.9704   14.5556 C.3     1  UNL1        0.1076
      4 N          62.7572   86.2991   10.2931 N.ar    1  UNL1       -0.2473
      5 C          62.7586   86.5109   11.7780 C.ar    1  UNL1        0.3537
      6 O          62.7602   87.9028   12.3371 O.2     1  UNL1       -0.2443
      7 N          62.7584   85.3307   12.7038 N.ar    1  UNL1       -0.1746
      8 C          62.7567   83.9388   12.1447 C.ar    1  UNL1        0.1531
      9 N          62.7565   82.7586   13.0706 N.ar    1  UNL1       -0.3125
     10 C          62.7549   81.3667   12.5115 C.ar    1  UNL1        0.0610
     11 C          62.7546   80.1866   13.4373 C.ar    1  UNL1        0.0172
     12 C          62.7530   78.7947   12.8782 C.ar    1  UNL1        0.0015
     13 C          62.7516   78.5829   11.3933 C.ar    1  UNL1        0.0001
     14 C          62.7518   79.7631   10.4673 C.ar    1  UNL1        0.0014
     15 C          62.7535   81.1550   11.0265 C.ar    1  UNL1        0.0161
     16 C          62.7537   82.3352   10.1006 C.ar    1  UNL1        0.0092
     17 C          62.7553   83.7271   10.6598 C.ar    1  UNL1        0.0905
     18 C          62.7556   84.9072    9.7339 C.ar    1  UNL1        0.2671
     19 O          62.7542   84.6955    8.2489 O.2     1  UNL1       -0.2667
     20 C          62.7575   87.4793    9.3671 C.3     1  UNL1        0.1142
     21 C          61.4683   88.1673    9.0287 C.3     1  UNL1        0.0364
     22 C          60.1752   87.4094    9.0893 C.3     1  UNL1        0.1116
     23 C          59.3775   87.1859    7.8388 C.2     1  UNL1        0.3170
     24 O          59.3309   85.8237    7.2124 O.2     1  UNL1       -0.2501
     25 O          58.6266   88.3245    7.2148 O.3     1  UNL1       -0.4485
     26 C          58.6762   90.4343    5.6994 C.3     1  UNL1        0.0513
     27 C          59.3751   89.4828    6.6246 C.3     1  UNL1        0.2086
     28 C          63.5212   85.7043   16.0710 C.3     1  UNL1        0.2085
     29 O          63.6002   87.1549   15.6973 O.3     1  UNL1       -0.4485
     30 C          63.0241   88.1969   16.6097 C.2     1  UNL1        0.3173
     31 O          62.8335   87.8954   18.0667 O.2     1  UNL1       -0.2501
     32 C          62.6386   89.5403   16.0651 C.3     1  UNL1        0.1136
     33 C          63.5624   90.2641   15.1309 C.3     1  UNL1        0.0295
     34 C          64.9082   90.7203   15.6111 C.3     1  UNL1        0.0046
     35 C          65.8320   91.4441   14.6769 C.3     1  UNL1        0.0007
     36 C          67.1779   91.9003   15.1572 C.3     1  UNL1        0.0024
     37 C          67.8632   91.7801   16.4860 C.3     1  UNL1        0.0026
     38 C          69.2105   92.4296   16.3732 C.3     1  UNL1        0.0292
     39 C          69.3579   92.9513   14.9745 C.3     1  UNL1        0.1104
     40 O          70.5520   93.6734   14.4242 O.3     1  UNL1       -0.3845
     41 C          68.1018   92.6242   14.2230 C.3     1  UNL1        0.0269
     42 C          67.6797   92.8919   12.8087 C.3     1  UNL1        0.0024
     43 C          66.3338   92.4357   12.3286 C.3     1  UNL1        0.0004
     44 C          65.4100   91.7118   13.2627 C.3     1  UNL1        0.0035
     45 C          64.0641   91.2557   12.7825 C.3     1  UNL1        0.0157
     46 C          64.9879   91.9796   11.8484 C.3     1  UNL1        0.0041
     47 C          63.6421   91.5234   11.3682 C.3     1  UNL1        0.0118
     48 C          62.2962   91.0673   10.8881 C.3     1  UNL1        0.0694
     49 C          61.3724   90.3434   11.8222 C.2     1  UNL1        0.1725
     50 O          60.0265   89.8872   11.3420 O.2     1  UNL1       -0.2914
     51 C          61.7944   90.0757   13.2365 C.2     1  UNL1        0.0289
     52 C          63.1403   90.5318   13.7166 C.2     1  UNL1       -0.0417
     53 H          71.2272   93.7557   15.1158 H       1  UNL1        0.2103
@<TRIPOS>BOND
     1    26    27    1
     2    27    25    1
     3    25    23    1
     4    23    24    2
     5    23    22    1
     6    22    21    1
     7    21    20    1
     8    20     4    1
     9     4     5   ar
    10     5     6    2
    11     5     7   ar
    12     7     8   ar
    13     8     9   ar
    14     9     3    1
    15     3     2    1
    16     2     1    1
    17     1    28    1
    18    28    29    1
    19    29    30    1
    20    30    31    2
    21    30    32    1
    22    33    32    1
    23    33    34    1
    24    34    35    1
    25    35    36    1
    26    36    37    1
    27    37    38    1
    28    38    39    1
    29    39    40    1
    30    39    41    1
    31    41    42    1
    32    42    43    1
    33    43    44    1
    34    44    45    1
    35    45    46    1
    36    45    47    1
    37    47    48    1
    38    48    49    1
    39    49    50    2
    40    49    51    1
    41    51    52    2
    42     9    10   ar
    43    10    11   ar
    44    11    12   ar
    45    12    13   ar
    46    13    14   ar
    47    14    15   ar
    48    15    16   ar
    49    16    17   ar
    50    17    18   ar
    51    18    19    2
    52    18     4   ar
    53    17     8    1
    54    52    33    1
    55    15    10   ar
    56    44    35    1
    57    52    45    1
    58    41    36    1
    59    40    53    1
@<TRIPOS>MOLECULE
*****
 53 59 0 0 0
SMALL
GASTEIGER

@<TRIPOS>ATOM
      1 C          60.2682   87.5995    9.0299 C.3     1  UNL1        0.0494
      2 C          60.9221   88.9357    8.8380 C.3     1  UNL1        0.0284
      3 C          60.5540   90.0856    9.7281 C.3     1  UNL1        0.1076
      4 N          65.0492   91.8841   12.1380 N.ar    1  UNL1       -0.2473
      5 C          64.5724   91.8536   10.7161 C.ar    1  UNL1        0.3537
      6 O          65.4350   92.4125    9.6236 O.2     1  UNL1       -0.2443
      7 N          63.2330   91.2643   10.3868 N.ar    1  UNL1       -0.1746
      8 C          62.3703   90.7055   11.4793 C.ar    1  UNL1        0.1531
      9 N          61.0308   90.1161   11.1499 N.ar    1  UNL1       -0.3125
     10 C          60.1682   89.5573   12.2424 C.ar    1  UNL1        0.0610
     11 C          58.8287   88.9679   11.9131 C.ar    1  UNL1        0.0172
     12 C          57.9661   88.4091   13.0056 C.ar    1  UNL1        0.0015
     13 C          58.4429   88.4396   14.4274 C.ar    1  UNL1        0.0001
     14 C          59.7824   89.0289   14.7568 C.ar    1  UNL1        0.0014
     15 C          60.6451   89.5878   13.6643 C.ar    1  UNL1        0.0161
     16 C          61.9845   90.1771   13.9936 C.ar    1  UNL1        0.0092
     17 C          62.8471   90.7359   12.9011 C.ar    1  UNL1        0.0905
     18 C          64.1866   91.3253   13.2305 C.ar    1  UNL1        0.2671
     19 O          64.6635   91.3558   14.6524 O.2     1  UNL1       -0.2667
     20 C          66.3887   92.4735   12.4674 C.3     1  UNL1        0.1142
     21 C          66.5257   93.9519   12.6807 C.3     1  UNL1        0.0364
     22 C          65.9969   94.9099   11.6548 C.3     1  UNL1        0.1116
     23 C          66.8310   95.2648   10.4597 C.2     1  UNL1        0.3170
     24 O          66.4498   96.4328    9.5991 O.2     1  UNL1       -0.2501
     25 O          68.0462   94.4516   10.1251 O.3     1  UNL1       -0.4485
     26 C          68.7627   92.3319    8.8047 C.3     1  UNL1        0.0513
     27 C          68.1004   93.6772    8.8415 C.3     1  UNL1        0.2086
     28 C          61.0530   86.4553    9.6000 C.3     1  UNL1        0.2085
     29 O          62.5111   86.3121    9.2785 O.3     1  UNL1       -0.4485
     30 C          63.0127   85.0672    8.6087 C.2     1  UNL1        0.3173
     31 O          62.6149   84.7641    7.1945 O.2     1  UNL1       -0.2501
     32 C          63.9119   84.1253    9.3531 C.3     1  UNL1        0.1136
     33 C          63.6274   83.7931   10.7879 C.3     1  UNL1        0.0295
     34 C          63.7085   84.8631   11.8358 C.3     1  UNL1        0.0046
     35 C          63.4239   84.5309   13.2706 C.3     1  UNL1        0.0007
     36 C          63.5050   85.6011   14.3186 C.3     1  UNL1        0.0024
     37 C          63.8383   87.0613   14.2382 C.3     1  UNL1        0.0026
     38 C          63.7597   87.6316   15.6234 C.3     1  UNL1        0.0292
     39 C          63.3778   86.5238   16.5597 C.3     1  UNL1        0.1104
     40 O          63.1869   86.6490   18.0423 O.3     1  UNL1       -0.3845
     41 C          63.2204   85.2689   15.7534 C.3     1  UNL1        0.0269
     42 C          62.8547   83.8665   16.1402 C.3     1  UNL1        0.0024
     43 C          62.7736   82.7964   15.0922 C.3     1  UNL1        0.0004
     44 C          63.0582   83.1286   13.6574 C.3     1  UNL1        0.0035
     45 C          62.9771   82.0584   12.6095 C.3     1  UNL1        0.0157
     46 C          62.6925   81.7262   14.0443 C.3     1  UNL1        0.0041
     47 C          62.6114   80.6561   12.9963 C.3     1  UNL1        0.0118
     48 C          62.5303   79.5860   11.9484 C.3     1  UNL1        0.0694
     49 C          62.8149   79.9182   10.5136 C.2     1  UNL1        0.1725
     50 O          62.7338   78.8480    9.4656 O.2     1  UNL1       -0.2914
     51 C          63.1806   81.3205   10.1267 C.2     1  UNL1        0.0289
     52 C          63.2617   82.3906   11.1747 C.2     1  UNL1       -0.0417
     53 H          63.3489   87.5663   18.3128 H       1  UNL1        0.2103
@<TRIPOS>BOND
     1    26    27    1
     2    27    25    1
     3    25    23    1
     4    23    24    2
     5    23    22    1
     6    22    21    1
     7    21    20    1
     8    20     4    1
     9     4     5   ar
    10     5     6    2
    11     5     7   ar
    12     7     8   ar
    13     8     9   ar
    14     9     3    1
    15     3     2    1
    16     2     1    1
    17     1    28    1
    18    28    29    1
    19    29    30    1
    20    30    31    2
    21    30    32    1
    22    33    32    1
    23    33    34    1
    24    34    35    1
    25    35    36    1
    26    36    37    1
    27    37    38    1
    28    38    39    1
    29    39    40    1
    30    39    41    1
    31    41    42    1
    32    42    43    1
    33    43    44    1
    34    44    45    1
    35    45    46    1
    36    45    47    1
    37    47    48    1
    38    48    49    1
    39    49    50    2
    40    49    51    1
    41    51    52    2
    42     9    10   ar
    43    10    11   ar
    44    11    12   ar
    45    12    13   ar
    46    13    14   ar
    47    14    15   ar
    48    15    16   ar
    49    16    17   ar
    50    17    18   ar
    51    18    19    2
    52    18     4   ar
    53    17     8    1
    54    52    33    1
    55    15    10   ar
    56    44    35    1
    57    52    45    1
    58    41    36    1
    59    40    53    1
@<TRIPOS>MOLECULE
*****
 53 59 0 0 0
SMALL
GASTEIGER

@<TRIPOS>ATOM
      1 C          59.3281   90.3265    5.3828 C.3     1  UNL1        0.0494
      2 C          59.7682   89.9148    6.7563 C.3     1  UNL1        0.0284
      3 C          59.4816   88.5283    7.2517 C.3     1  UNL1        0.1076
      4 N          61.7708   89.5807   12.0372 N.ar    1  UNL1       -0.2473
      5 C          60.7640   90.2962   11.1861 C.ar    1  UNL1        0.3537
      6 O          60.1846   91.6010   11.6464 O.2     1  UNL1       -0.2443
      7 N          60.3365   89.7069    9.8746 N.ar    1  UNL1       -0.1746
      8 C          60.9159   88.4021    9.4143 C.ar    1  UNL1        0.1531
      9 N          60.4884   87.8128    8.1028 N.ar    1  UNL1       -0.3125
     10 C          61.0678   86.5080    7.6424 C.ar    1  UNL1        0.0610
     11 C          60.6403   85.9187    6.3310 C.ar    1  UNL1        0.0172
     12 C          61.2197   84.6139    5.8706 C.ar    1  UNL1        0.0015
     13 C          62.2265   83.8985    6.7217 C.ar    1  UNL1        0.0001
     14 C          62.6540   84.4878    8.0333 C.ar    1  UNL1        0.0014
     15 C          62.0746   85.7926    8.4936 C.ar    1  UNL1        0.0161
     16 C          62.5021   86.3819    9.8051 C.ar    1  UNL1        0.0092
     17 C          61.9227   87.6867   10.2654 C.ar    1  UNL1        0.0905
     18 C          62.3501   88.2760   11.5768 C.ar    1  UNL1        0.2671
     19 O          63.3570   87.5605   12.4280 O.2     1  UNL1       -0.2667
     20 C          62.1983   90.1701   13.3487 C.3     1  UNL1        0.1142
     21 C          63.5132   89.7774   13.9544 C.3     1  UNL1        0.0364
     22 C          64.1568   90.6571   14.9849 C.3     1  UNL1        0.1116
     23 C          65.1710   91.6811   14.5690 C.2     1  UNL1        0.3170
     24 O          66.4242   91.8649   15.3725 O.2     1  UNL1       -0.2501
     25 O          64.9319   92.5212   13.3496 O.3     1  UNL1       -0.4485
     26 C          64.8044   92.6000   10.7559 C.3     1  UNL1        0.0513
     27 C          65.4209   92.0555   12.0102 C.3     1  UNL1        0.2086
     28 C          59.4198   91.7643    4.9653 C.3     1  UNL1        0.2085
     29 O          58.7600   92.2207    3.6978 O.3     1  UNL1       -0.4485
     30 C          59.5715   92.8917    2.6295 C.2     1  UNL1        0.3173
     31 O          60.0030   94.3182    2.8000 O.2     1  UNL1       -0.2501
     32 C          59.9516   92.1362    1.3906 C.3     1  UNL1        0.1136
     33 C          60.2819   92.8797    0.1304 C.3     1  UNL1        0.0295
     34 C          61.6441   93.4811   -0.0504 C.3     1  UNL1        0.0046
     35 C          61.9744   94.2247   -1.3106 C.3     1  UNL1        0.0007
     36 C          63.3367   94.8261   -1.4914 C.3     1  UNL1        0.0024
     37 C          64.5491   94.8485   -0.6087 C.3     1  UNL1        0.0026
     38 C          65.6288   95.6059   -1.3233 C.3     1  UNL1        0.0292
     39 C          65.0835   96.0515   -2.6477 C.3     1  UNL1        0.1104
     40 O          65.8249   96.8406   -3.6859 O.3     1  UNL1       -0.3845
     41 C          63.6670   95.5696   -2.7516 C.3     1  UNL1        0.0269
     42 C          62.6350   95.7117   -3.8310 C.3     1  UNL1        0.0024
     43 C          61.2728   95.1103   -3.6501 C.3     1  UNL1        0.0004
     44 C          60.9425   94.3668   -2.3900 C.3     1  UNL1        0.0035
     45 C          59.5803   93.7654   -2.2091 C.3     1  UNL1        0.0157
     46 C          59.9106   94.5089   -3.4693 C.3     1  UNL1        0.0041
     47 C          58.5484   93.9075   -3.2885 C.3     1  UNL1        0.0118
     48 C          57.1862   93.3061   -3.1076 C.3     1  UNL1        0.0694
     49 C          56.8559   92.5626   -1.8474 C.2     1  UNL1        0.1725
     50 O          55.4936   91.9612   -1.6666 O.2     1  UNL1       -0.2914
     51 C          57.8878   92.4205   -0.7681 C.2     1  UNL1        0.0289
     52 C          59.2499   93.0219   -0.9489 C.2     1  UNL1       -0.0417
     53 H          66.7239   97.0243   -3.3714 H       1  UNL1        0.2103
@<TRIPOS>BOND
     1    26    27    1
     2    27    25    1
     3    25    23    1
     4    23    24    2
     5    23    22    1
     6    22    21    1
     7    21    20    1
     8    20     4    1
     9     4     5   ar
    10     5     6    2
    11     5     7   ar
    12     7     8   ar
    13     8     9   ar
    14     9     3    1
    15     3     2    1
    16     2     1    1
    17     1    28    1
    18    28    29    1
    19    29    30    1
    20    30    31    2
    21    30    32    1
    22    33    32    1
    23    33    34    1
    24    34    35    1
    25    35    36    1
    26    36    37    1
    27    37    38    1
    28    38    39    1
    29    39    40    1
    30    39    41    1
    31    41    42    1
    32    42    43    1
    33    43    44    1
    34    44    45    1
    35    45    46    1
    36    45    47    1
    37    47    48    1
    38    48    49    1
    39    49    50    2
    40    49    51    1
    41    51    52    2
    42     9    10   ar
    43    10    11   ar
    44    11    12   ar
    45    12    13   ar
    46    13    14   ar
    47    14    15   ar
    48    15    16   ar
    49    16    17   ar
    50    17    18   ar
    51    18    19    2
    52    18     4   ar
    53    17     8    1
    54    52    33    1
    55    15    10   ar
    56    44    35    1
    57    52    45    1
    58    41    36    1
    59    40    53    1
