@<TRIPOS>MOLECULE
*****
 31 34 0 0 0
SMALL
GASTEIGER

@<TRIPOS>ATOM
      1 C          63.6609   90.5068   12.6249 C.ar    1  UNL1        0.0180
      2 C          63.0458   91.2129   11.4532 C.ar    1  UNL1        0.0029
      3 C          62.2833   90.4331   10.4234 C.ar    1  UNL1        0.0189
      4 C          62.1360   88.9471   10.5653 C.ar    1  UNL1        0.0789
      5 C          62.7512   88.2410   11.7370 C.ar    1  UNL1        0.0670
      6 C          63.5136   89.0208   12.7668 C.ar    1  UNL1        0.0174
      7 N          61.3735   88.1673    9.5355 N.ar    1  UNL1       -0.2852
      8 C          60.0901   88.5879    8.8829 C.ar    1  UNL1        0.1023
      9 C          59.6840   87.5105    7.9215 C.ar    1  UNL1        0.1196
     10 N          60.7165   86.4240    7.9799 N.ar    1  UNL1       -0.2220
     11 C          61.7607   86.8299    8.9773 C.ar    1  UNL1        0.1829
     12 N          62.6039   86.7550   11.8789 N.am    1  UNL1       -0.2788
     13 C          63.2220   86.0483   13.0487 C.2     1  UNL1        0.2571
     14 O          63.9875   86.8277   14.0767 O.2     1  UNL1       -0.2692
     15 H          62.1015   86.2434   11.2042 H       1  UNL1        0.1552
     16 C          63.0748   84.5623   13.1906 C.ar    1  UNL1        0.1036
     17 C          62.9174   83.8111   14.4794 C.ar    1  UNL1        0.1105
     18 N          62.8044   82.3511   14.1540 N.ar    1  UNL1       -0.2351
     19 C          62.8919   82.2001   12.6642 C.ar    1  UNL1        0.1285
     20 S          63.0590   83.5667   12.0688 S.2     1  UNL1       -0.0604
     21 C          62.8242   80.9093   11.9033 C.ar    1  UNL1        0.1050
     22 C          63.0541   80.8993   10.4211 C.ar    1  UNL1        0.0212
     23 C          62.9864   79.6084    9.6602 C.ar    1  UNL1        0.0032
     24 C          62.6888   78.3274   10.3816 C.ar    1  UNL1        0.0207
     25 C          62.4588   78.3372   11.8639 C.ar    1  UNL1        0.0989
     26 N          62.5266   79.6282   12.6247 N.ar    1  UNL1       -0.2418
     27 N          65.2782   92.4460   13.2363 N.2     1  UNL1       -0.0873
     28 C          64.4234   91.2866   13.6547 C.2     1  UNL1        0.0974
     29 C          64.3310   90.9071   15.1029 C.3     1  UNL1        0.0555
     30 C          67.4821   92.9071   14.5327 C.3     1  UNL1        0.2885
     31 O          66.0407   93.2258   14.2661 O.2     1  UNL1       -0.3734
@<TRIPOS>BOND
     1    30    31    1
     2    31    27    1
     3    27    28    2
     4    28    29    1
     5    28     1    1
     6     1     2   ar
     7     2     3   ar
     8     3     4   ar
     9     4     7    1
    10     7     8   ar
    11     8     9   ar
    12     9    10   ar
    13    10    11   ar
    14     4     5   ar
    15     5    12    1
    16    12    13   am
    17    13    14    2
    18    13    16    1
    19    16    17   ar
    20    17    18   ar
    21    18    19   ar
    22    19    21    1
    23    21    22   ar
    24    22    23   ar
    25    23    24   ar
    26    24    25   ar
    27    25    26   ar
    28    19    20   ar
    29     5     6   ar
    30     6     1   ar
    31    11     7   ar
    32    20    16   ar
    33    26    21   ar
    34    12    15    1
@<TRIPOS>MOLECULE
*****
 31 34 0 0 0
SMALL
GASTEIGER

@<TRIPOS>ATOM
      1 C          64.9544   90.9596   14.1634 C.ar    1  UNL1        0.0180
      2 C          64.1719   91.8298   13.2252 C.ar    1  UNL1        0.0029
      3 C          63.2062   91.2115   12.2581 C.ar    1  UNL1        0.0189
      4 C          63.0230   89.7231   12.2293 C.ar    1  UNL1        0.0789
      5 C          63.8055   88.8529   13.1676 C.ar    1  UNL1        0.0670
      6 C          64.7712   89.4711   14.1347 C.ar    1  UNL1        0.0174
      7 N          62.0573   89.1048   11.2622 N.ar    1  UNL1       -0.2852
      8 C          62.4169   88.3771   10.0009 C.ar    1  UNL1        0.1023
      9 C          61.1443   87.9282    9.3458 C.ar    1  UNL1        0.1196
     10 N          59.9982   88.3787   10.2023 N.ar    1  UNL1       -0.2220
     11 C          60.5625   89.1058   11.3867 C.ar    1  UNL1        0.1829
     12 N          63.6223   87.3643   13.1388 N.am    1  UNL1       -0.2788
     13 C          63.6351   86.5823   14.4187 C.2     1  UNL1        0.2571
     14 O          63.8310   87.2886   15.7274 O.2     1  UNL1       -0.2692
     15 H          63.4936   86.9007   12.2799 H       1  UNL1        0.1552
     16 C          63.4519   85.0937   14.3900 C.ar    1  UNL1        0.1036
     17 C          63.3380   84.1962   15.5865 C.ar    1  UNL1        0.1105
     18 N          63.1661   82.7891   15.0957 N.ar    1  UNL1       -0.2351
     19 C          63.1738   82.8172   13.5959 C.ar    1  UNL1        0.1285
     20 S          63.3504   84.2414   13.1598 S.2     1  UNL1       -0.0604
     21 C          63.0301   81.6295   12.6912 C.ar    1  UNL1        0.1050
     22 C          63.2732   81.7748   11.2182 C.ar    1  UNL1        0.0212
     23 C          63.1295   80.5871   10.3135 C.ar    1  UNL1        0.0032
     24 C          62.7426   79.2539   10.8817 C.ar    1  UNL1        0.0207
     25 C          62.4995   79.1084   12.3548 C.ar    1  UNL1        0.0989
     26 N          62.6432   80.2963   13.2595 N.ar    1  UNL1       -0.2418
     27 N          67.3969   91.4428   14.9054 N.2     1  UNL1       -0.0873
     28 C          65.9201   91.5778   15.1305 C.2     1  UNL1        0.0974
     29 C          65.4089   92.3311   16.3226 C.3     1  UNL1        0.0555
     30 C          68.8509   93.4622   15.6524 C.3     1  UNL1        0.2885
     31 O          68.3626   92.0610   15.8725 O.2     1  UNL1       -0.3734
@<TRIPOS>BOND
     1    30    31    1
     2    31    27    1
     3    27    28    2
     4    28    29    1
     5    28     1    1
     6     1     2   ar
     7     2     3   ar
     8     3     4   ar
     9     4     7    1
    10     7     8   ar
    11     8     9   ar
    12     9    10   ar
    13    10    11   ar
    14     4     5   ar
    15     5    12    1
    16    12    13   am
    17    13    14    2
    18    13    16    1
    19    16    17   ar
    20    17    18   ar
    21    18    19   ar
    22    19    21    1
    23    21    22   ar
    24    22    23   ar
    25    23    24   ar
    26    24    25   ar
    27    25    26   ar
    28    19    20   ar
    29     5     6   ar
    30     6     1   ar
    31    11     7   ar
    32    20    16   ar
    33    26    21   ar
    34    12    15    1
@<TRIPOS>MOLECULE
*****
 31 34 0 0 0
SMALL
GASTEIGER

@<TRIPOS>ATOM
      1 C          64.4798   91.6176   12.1092 C.ar    1  UNL1        0.0180
      2 C          63.7643   92.0442   10.8618 C.ar    1  UNL1        0.0029
      3 C          62.8552   91.0844   10.1531 C.ar    1  UNL1        0.0189
      4 C          62.6615   89.6980   10.6919 C.ar    1  UNL1        0.0789
      5 C          63.3769   89.2714   11.9393 C.ar    1  UNL1        0.0670
      6 C          64.2861   90.2312   12.6480 C.ar    1  UNL1        0.0174
      7 N          61.7523   88.7382    9.9832 N.ar    1  UNL1       -0.2852
      8 C          62.1060   87.3471    9.5473 C.ar    1  UNL1        0.1023
      9 C          60.9021   86.7501    8.8807 C.ar    1  UNL1        0.1196
     10 N          59.8045   87.7722    8.9046 N.ar    1  UNL1       -0.2220
     11 C          60.3299   89.0008    9.5860 C.ar    1  UNL1        0.1829
     12 N          63.1833   87.8849   12.4781 N.am    1  UNL1       -0.2788
     13 C          63.8528   87.4769   13.7568 C.2     1  UNL1        0.2571
     14 O          64.7160   88.4552   14.4968 O.2     1  UNL1       -0.2692
     15 H          62.6167   87.2427   11.9924 H       1  UNL1        0.1552
     16 C          63.6591   86.0904   14.2956 C.ar    1  UNL1        0.1036
     17 C          63.9687   85.6356   15.6911 C.ar    1  UNL1        0.1105
     18 N          63.6228   84.1794   15.7915 N.ar    1  UNL1       -0.2351
     19 C          63.0995   83.7343   14.4581 C.ar    1  UNL1        0.1285
     20 S          63.1219   84.9154   13.5336 S.2     1  UNL1       -0.0604
     21 C          62.6352   82.3511   14.1102 C.ar    1  UNL1        0.1050
     22 C          63.5285   81.4346   13.3279 C.ar    1  UNL1        0.0212
     23 C          63.0643   80.0514   12.9800 C.ar    1  UNL1        0.0032
     24 C          61.7066   79.5846   13.4145 C.ar    1  UNL1        0.0207
     25 C          60.8132   80.5010   14.1968 C.ar    1  UNL1        0.0989
     26 N          61.2775   81.8843   14.5447 N.ar    1  UNL1       -0.2418
     27 N          65.5642   92.4856   14.3048 N.2     1  UNL1       -0.0873
     28 C          65.3889   92.5774   12.8179 C.2     1  UNL1        0.0974
     29 C          66.1228   93.6289   12.0397 C.3     1  UNL1        0.0555
     30 C          67.4132   92.9466   16.0708 C.3     1  UNL1        0.2885
     31 O          66.4733   93.4455   15.0134 O.2     1  UNL1       -0.3734
@<TRIPOS>BOND
     1    30    31    1
     2    31    27    1
     3    27    28    2
     4    28    29    1
     5    28     1    1
     6     1     2   ar
     7     2     3   ar
     8     3     4   ar
     9     4     7    1
    10     7     8   ar
    11     8     9   ar
    12     9    10   ar
    13    10    11   ar
    14     4     5   ar
    15     5    12    1
    16    12    13   am
    17    13    14    2
    18    13    16    1
    19    16    17   ar
    20    17    18   ar
    21    18    19   ar
    22    19    21    1
    23    21    22   ar
    24    22    23   ar
    25    23    24   ar
    26    24    25   ar
    27    25    26   ar
    28    19    20   ar
    29     5     6   ar
    30     6     1   ar
    31    11     7   ar
    32    20    16   ar
    33    26    21   ar
    34    12    15    1
@<TRIPOS>MOLECULE
*****
 31 34 0 0 0
SMALL
GASTEIGER

@<TRIPOS>ATOM
      1 C          63.4670   85.1744   13.8097 C.ar    1  UNL1        0.0180
      2 C          64.1050   86.2933   14.5784 C.ar    1  UNL1        0.0029
      3 C          64.0854   87.6884   14.0275 C.ar    1  UNL1        0.0189
      4 C          63.4278   87.9645   12.7080 C.ar    1  UNL1        0.0789
      5 C          62.7897   86.8456   11.9393 C.ar    1  UNL1        0.0670
      6 C          62.8093   85.4506   12.4902 C.ar    1  UNL1        0.0174
      7 N          63.4081   89.3596   12.1571 N.ar    1  UNL1       -0.2852
      8 C          63.0278   89.7505   10.7598 C.ar    1  UNL1        0.1023
      9 C          63.1500   91.2412   10.6460 C.ar    1  UNL1        0.1196
     10 N          63.6059   91.7716   11.9729 N.ar    1  UNL1       -0.2220
     11 C          63.7654   90.6087   12.9069 C.ar    1  UNL1        0.1829
     12 N          62.1320   87.1217   10.6197 N.am    1  UNL1       -0.2788
     13 C          60.7163   87.6153   10.5761 C.2     1  UNL1        0.2571
     14 O          59.9581   87.8328   11.8520 O.2     1  UNL1       -0.2692
     15 H          62.6296   86.9790    9.7823 H       1  UNL1        0.1552
     16 C          60.0585   87.8914    9.2565 C.ar    1  UNL1        0.1036
     17 C          59.2367   86.9211    8.4609 C.ar    1  UNL1        0.1105
     18 N          58.7774   87.6163    7.2135 N.ar    1  UNL1       -0.2351
     19 C          59.3155   89.0163    7.2383 C.ar    1  UNL1        0.1285
     20 S          60.1073   89.1863    8.5009 S.2     1  UNL1       -0.0604
     21 C          59.0997   90.0624    6.1853 C.ar    1  UNL1        0.1050
     22 C          60.2738   90.6489    5.4589 C.ar    1  UNL1        0.0212
     23 C          60.0580   91.6951    4.4059 C.ar    1  UNL1        0.0032
     24 C          58.6681   92.1549    4.0793 C.ar    1  UNL1        0.0207
     25 C          57.4939   91.5686    4.8057 C.ar    1  UNL1        0.0989
     26 N          57.7098   90.5223    5.8587 N.ar    1  UNL1       -0.2418
     27 N          62.4133   82.8053   13.9742 N.2     1  UNL1       -0.0873
     28 C          63.4866   83.7794   14.3605 C.2     1  UNL1        0.0974
     29 C          64.5794   83.3584   15.2978 C.3     1  UNL1        0.0555
     30 C          62.4259   80.2354   13.5923 C.3     1  UNL1        0.2885
     31 O          62.4329   81.4102   14.5250 O.2     1  UNL1       -0.3734
@<TRIPOS>BOND
     1    30    31    1
     2    31    27    1
     3    27    28    2
     4    28    29    1
     5    28     1    1
     6     1     2   ar
     7     2     3   ar
     8     3     4   ar
     9     4     7    1
    10     7     8   ar
    11     8     9   ar
    12     9    10   ar
    13    10    11   ar
    14     4     5   ar
    15     5    12    1
    16    12    13   am
    17    13    14    2
    18    13    16    1
    19    16    17   ar
    20    17    18   ar
    21    18    19   ar
    22    19    21    1
    23    21    22   ar
    24    22    23   ar
    25    23    24   ar
    26    24    25   ar
    27    25    26   ar
    28    19    20   ar
    29     5     6   ar
    30     6     1   ar
    31    11     7   ar
    32    20    16   ar
    33    26    21   ar
    34    12    15    1
@<TRIPOS>MOLECULE
*****
 31 34 0 0 0
SMALL
GASTEIGER

@<TRIPOS>ATOM
      1 C          63.0014   82.2119   12.3937 C.ar    1  UNL1        0.0180
      2 C          62.4842   81.7164   13.7116 C.ar    1  UNL1        0.0029
      3 C          62.3150   82.6697   14.8573 C.ar    1  UNL1        0.0189
      4 C          62.6630   84.1185   14.6851 C.ar    1  UNL1        0.0789
      5 C          63.1802   84.6140   13.3672 C.ar    1  UNL1        0.0670
      6 C          63.3494   83.6607   12.2215 C.ar    1  UNL1        0.0174
      7 N          62.4938   85.0718   15.8307 N.ar    1  UNL1       -0.2852
      8 C          63.5928   85.6160   16.6945 C.ar    1  UNL1        0.1023
      9 C          62.9741   86.5289   17.7115 C.ar    1  UNL1        0.1196
     10 N          61.4928   86.5488   17.4761 N.ar    1  UNL1       -0.2220
     11 C          61.1960   85.6483   16.3138 C.ar    1  UNL1        0.1829
     12 N          63.5282   86.0630   13.1949 N.am    1  UNL1       -0.2788
     13 C          62.6437   86.9543   12.3744 C.2     1  UNL1        0.2571
     14 O          61.4112   86.3968   11.7262 O.2     1  UNL1       -0.2692
     15 H          64.3371   86.4289   13.6203 H       1  UNL1        0.1552
     16 C          62.9918   88.4032   12.2022 C.ar    1  UNL1        0.1036
     17 C          62.4036   89.3363   11.1856 C.ar    1  UNL1        0.1105
     18 N          63.0373   90.6832   11.3713 N.ar    1  UNL1       -0.2351
     19 C          64.0172   90.5824   12.5027 C.ar    1  UNL1        0.1285
     20 S          63.9890   89.1733   13.0161 S.2     1  UNL1       -0.0604
     21 C          64.8746   91.6952   13.0282 C.ar    1  UNL1        0.1050
     22 C          65.3937   92.7476   12.0938 C.ar    1  UNL1        0.0212
     23 C          66.2511   93.8604   12.6193 C.ar    1  UNL1        0.0032
     24 C          66.5895   93.9211   14.0794 C.ar    1  UNL1        0.0207
     25 C          66.0704   92.8687   15.0140 C.ar    1  UNL1        0.0989
     26 N          65.2130   91.7559   14.4883 N.ar    1  UNL1       -0.2418
     27 N          62.6614   79.8522   11.3611 N.2     1  UNL1       -0.0873
     28 C          63.1706   81.2586   11.2480 C.2     1  UNL1        0.0974
     29 C          63.8489   81.7117    9.9892 C.3     1  UNL1        0.0555
     30 C          62.8399   77.4199   10.4655 C.3     1  UNL1        0.2885
     31 O          62.8306   78.8989   10.2154 O.2     1  UNL1       -0.3734
@<TRIPOS>BOND
     1    30    31    1
     2    31    27    1
     3    27    28    2
     4    28    29    1
     5    28     1    1
     6     1     2   ar
     7     2     3   ar
     8     3     4   ar
     9     4     7    1
    10     7     8   ar
    11     8     9   ar
    12     9    10   ar
    13    10    11   ar
    14     4     5   ar
    15     5    12    1
    16    12    13   am
    17    13    14    2
    18    13    16    1
    19    16    17   ar
    20    17    18   ar
    21    18    19   ar
    22    19    21    1
    23    21    22   ar
    24    22    23   ar
    25    23    24   ar
    26    24    25   ar
    27    25    26   ar
    28    19    20   ar
    29     5     6   ar
    30     6     1   ar
    31    11     7   ar
    32    20    16   ar
    33    26    21   ar
    34    12    15    1
@<TRIPOS>MOLECULE
*****
 31 34 0 0 0
SMALL
GASTEIGER

@<TRIPOS>ATOM
      1 C          65.9739   93.3855   12.4427 C.ar    1  UNL1        0.0180
      2 C          66.1239   93.4157   13.9349 C.ar    1  UNL1        0.0029
      3 C          65.5530   92.3071   14.7686 C.ar    1  UNL1        0.0189
      4 C          64.8320   91.1684   14.1103 C.ar    1  UNL1        0.0789
      5 C          64.6820   91.1383   12.6181 C.ar    1  UNL1        0.0670
      6 C          65.2529   92.2468   11.7844 C.ar    1  UNL1        0.0174
      7 N          64.2610   90.0599   14.9440 N.ar    1  UNL1       -0.2852
      8 C          63.4860   90.2240   16.2178 C.ar    1  UNL1        0.1023
      9 C          63.1109   88.8581   16.7114 C.ar    1  UNL1        0.1196
     10 N          63.6540   87.8498   15.7427 N.ar    1  UNL1       -0.2220
     11 C          64.3648   88.5926   14.6505 C.ar    1  UNL1        0.1829
     12 N          63.9609   89.9995   11.9597 N.am    1  UNL1       -0.2788
     13 C          62.5222   90.1515   11.5635 C.2     1  UNL1        0.2571
     14 O          61.8045   91.4423   11.8258 O.2     1  UNL1       -0.2692
     15 H          64.4320   89.1524   11.7875 H       1  UNL1        0.1552
     16 C          61.8012   89.0128   10.9051 C.ar    1  UNL1        0.1036
     17 C          60.4574   88.4749   11.2984 C.ar    1  UNL1        0.1105
     18 N          60.1231   87.3417   10.3742 N.ar    1  UNL1       -0.2351
     19 C          61.2604   87.1793    9.4096 C.ar    1  UNL1        0.1285
     20 S          62.2975   88.2121    9.7378 S.2     1  UNL1       -0.0604
     21 C          61.3455   86.1627    8.3101 C.ar    1  UNL1        0.1050
     22 C          62.6560   85.5026    7.9987 C.ar    1  UNL1        0.0212
     23 C          62.7411   84.4860    6.8991 C.ar    1  UNL1        0.0032
     24 C          61.5158   84.1294    6.1108 C.ar    1  UNL1        0.0207
     25 C          60.2053   84.7895    6.4221 C.ar    1  UNL1        0.0989
     26 N          60.1202   85.8061    7.5218 N.ar    1  UNL1       -0.2418
     27 N          67.4947   94.1793   10.4916 N.2     1  UNL1       -0.0873
     28 C          66.5448   94.4940   11.6090 C.2     1  UNL1        0.0974
     29 C          66.1658   95.9174   11.8925 C.3     1  UNL1        0.0555
     30 C          67.4381   95.6350    8.3404 C.3     1  UNL1        0.2885
     31 O          68.0657   95.2878    9.6578 O.2     1  UNL1       -0.3734
@<TRIPOS>BOND
     1    30    31    1
     2    31    27    1
     3    27    28    2
     4    28    29    1
     5    28     1    1
     6     1     2   ar
     7     2     3   ar
     8     3     4   ar
     9     4     7    1
    10     7     8   ar
    11     8     9   ar
    12     9    10   ar
    13    10    11   ar
    14     4     5   ar
    15     5    12    1
    16    12    13   am
    17    13    14    2
    18    13    16    1
    19    16    17   ar
    20    17    18   ar
    21    18    19   ar
    22    19    21    1
    23    21    22   ar
    24    22    23   ar
    25    23    24   ar
    26    24    25   ar
    27    25    26   ar
    28    19    20   ar
    29     5     6   ar
    30     6     1   ar
    31    11     7   ar
    32    20    16   ar
    33    26    21   ar
    34    12    15    1
@<TRIPOS>MOLECULE
*****
 31 34 0 0 0
SMALL
GASTEIGER

@<TRIPOS>ATOM
      1 C          64.0465   89.0781   14.4490 C.ar    1  UNL1        0.0180
      2 C          64.3970   87.7447   15.0399 C.ar    1  UNL1        0.0029
      3 C          64.1046   86.4863   14.2778 C.ar    1  UNL1        0.0189
      4 C          63.4617   86.5612   12.9247 C.ar    1  UNL1        0.0789
      5 C          63.1112   87.8946   12.3337 C.ar    1  UNL1        0.0670
      6 C          63.4036   89.1530   13.0958 C.ar    1  UNL1        0.0174
      7 N          63.1693   85.3028   12.1625 N.ar    1  UNL1       -0.2852
      8 C          63.1791   83.9109   12.7216 C.ar    1  UNL1        0.1023
      9 C          62.8316   82.9632   11.6121 C.ar    1  UNL1        0.1196
     10 N          62.6071   83.7693   10.3672 N.ar    1  UNL1       -0.2220
     11 C          62.8158   85.2153   10.7074 C.ar    1  UNL1        0.1829
     12 N          62.4682   87.9695   10.9805 N.am    1  UNL1       -0.2788
     13 C          61.0004   88.2549   10.8623 C.2     1  UNL1        0.2571
     14 O          60.1755   88.4654   12.0973 O.2     1  UNL1       -0.2692
     15 H          63.0096   87.8314   10.1699 H       1  UNL1        0.1552
     16 C          60.3574   88.3299    9.5092 C.ar    1  UNL1        0.1036
     17 C          59.7523   87.1826    8.7559 C.ar    1  UNL1        0.1105
     18 N          59.2276   87.7089    7.4528 N.ar    1  UNL1       -0.2351
     19 C          59.5085   89.1815    7.4009 C.ar    1  UNL1        0.1285
     20 S          60.2068   89.5653    8.6718 S.2     1  UNL1       -0.0604
     21 C          59.1535   90.1076    6.2758 C.ar    1  UNL1        0.1050
     22 C          60.2373   90.7331    5.4486 C.ar    1  UNL1        0.0212
     23 C          59.8823   91.6592    4.3235 C.ar    1  UNL1        0.0032
     24 C          58.4433   91.9600    4.0253 C.ar    1  UNL1        0.0207
     25 C          57.3594   91.3346    4.8524 C.ar    1  UNL1        0.0989
     26 N          57.7145   90.4084    5.9776 N.ar    1  UNL1       -0.2418
     27 N          65.3897   91.2858   14.7166 N.2     1  UNL1       -0.0873
     28 C          64.3389   90.3365   15.2111 C.2     1  UNL1        0.0974
     29 C          63.5805   90.6456   16.4678 C.3     1  UNL1        0.0555
     30 C          67.0480   92.7714   16.0557 C.3     1  UNL1        0.2885
     31 O          65.6821   92.5442   15.4788 O.2     1  UNL1       -0.3734
@<TRIPOS>BOND
     1    30    31    1
     2    31    27    1
     3    27    28    2
     4    28    29    1
     5    28     1    1
     6     1     2   ar
     7     2     3   ar
     8     3     4   ar
     9     4     7    1
    10     7     8   ar
    11     8     9   ar
    12     9    10   ar
    13    10    11   ar
    14     4     5   ar
    15     5    12    1
    16    12    13   am
    17    13    14    2
    18    13    16    1
    19    16    17   ar
    20    17    18   ar
    21    18    19   ar
    22    19    21    1
    23    21    22   ar
    24    22    23   ar
    25    23    24   ar
    26    24    25   ar
    27    25    26   ar
    28    19    20   ar
    29     5     6   ar
    30     6     1   ar
    31    11     7   ar
    32    20    16   ar
    33    26    21   ar
    34    12    15    1
@<TRIPOS>MOLECULE
*****
 31 34 0 0 0
SMALL
GASTEIGER

@<TRIPOS>ATOM
      1 C          60.8096   87.2046    9.4214 C.ar    1  UNL1        0.0180
      2 C          60.8089   85.7101    9.5493 C.ar    1  UNL1        0.0029
      3 C          61.6564   85.0463   10.5938 C.ar    1  UNL1        0.0189
      4 C          62.5046   85.8770   11.5105 C.ar    1  UNL1        0.0789
      5 C          62.5053   87.3715   11.3827 C.ar    1  UNL1        0.0670
      6 C          61.6578   88.0353   10.3381 C.ar    1  UNL1        0.0174
      7 N          63.3521   85.2132   12.5551 N.ar    1  UNL1       -0.2852
      8 C          63.7959   85.8257   13.8504 C.ar    1  UNL1        0.1023
      9 C          64.6227   84.8114   14.5836 C.ar    1  UNL1        0.1196
     10 N          64.6899   83.5719   13.7414 N.ar    1  UNL1       -0.2220
     11 C          63.9046   83.8203   12.4878 C.ar    1  UNL1        0.1829
     12 N          63.3536   88.2023   12.2994 N.am    1  UNL1       -0.2788
     13 C          62.7407   89.3370   13.0654 C.2     1  UNL1        0.2571
     14 O          61.2796   89.6409   12.9148 O.2     1  UNL1       -0.2692
     15 H          64.3126   88.0028   12.3983 H       1  UNL1        0.1552
     16 C          63.5890   90.1678   13.9821 C.ar    1  UNL1        0.1036
     17 C          63.1857   90.6809   15.3327 C.ar    1  UNL1        0.1105
     18 N          64.3369   91.4616   15.8946 N.ar    1  UNL1       -0.2351
     19 C          65.4515   91.4307   14.8911 C.ar    1  UNL1        0.1285
     20 S          64.9892   90.6311   13.7092 S.2     1  UNL1       -0.0604
     21 C          66.7928   92.0847   15.0430 C.ar    1  UNL1        0.1050
     22 C          67.0374   93.0412   16.1723 C.ar    1  UNL1        0.0212
     23 C          68.3787   93.6951   16.3242 C.ar    1  UNL1        0.0032
     24 C          69.4756   93.3927   15.3467 C.ar    1  UNL1        0.0207
     25 C          69.2311   92.4362   14.2173 C.ar    1  UNL1        0.0989
     26 N          67.8897   91.7823   14.0655 N.ar    1  UNL1       -0.2418
     27 N          60.0652   89.3486    8.1568 N.2     1  UNL1       -0.0873
     28 C          59.9621   87.8684    8.3769 C.2     1  UNL1        0.0974
     29 C          59.0115   87.0521    7.5523 C.3     1  UNL1        0.0555
     30 C          59.7580   90.2190    5.7282 C.3     1  UNL1        0.2885
     31 O          59.2177   90.0124    7.1123 O.2     1  UNL1       -0.3734
@<TRIPOS>BOND
     1    30    31    1
     2    31    27    1
     3    27    28    2
     4    28    29    1
     5    28     1    1
     6     1     2   ar
     7     2     3   ar
     8     3     4   ar
     9     4     7    1
    10     7     8   ar
    11     8     9   ar
    12     9    10   ar
    13    10    11   ar
    14     4     5   ar
    15     5    12    1
    16    12    13   am
    17    13    14    2
    18    13    16    1
    19    16    17   ar
    20    17    18   ar
    21    18    19   ar
    22    19    21    1
    23    21    22   ar
    24    22    23   ar
    25    23    24   ar
    26    24    25   ar
    27    25    26   ar
    28    19    20   ar
    29     5     6   ar
    30     6     1   ar
    31    11     7   ar
    32    20    16   ar
    33    26    21   ar
    34    12    15    1
@<TRIPOS>MOLECULE
*****
 31 34 0 0 0
SMALL
GASTEIGER

@<TRIPOS>ATOM
      1 C          59.7660   88.8174    7.4130 C.ar    1  UNL1        0.0180
      2 C          59.5794   87.3413    7.2230 C.ar    1  UNL1        0.0029
      3 C          60.2776   86.3739    8.1323 C.ar    1  UNL1        0.0189
      4 C          61.1624   86.8826    9.2314 C.ar    1  UNL1        0.0789
      5 C          61.3490   88.3588    9.4214 C.ar    1  UNL1        0.0670
      6 C          60.6509   89.3262    8.5121 C.ar    1  UNL1        0.0174
      7 N          61.8606   85.9153   10.1407 N.ar    1  UNL1       -0.2852
      8 C          61.6546   85.7910   11.6212 C.ar    1  UNL1        0.1023
      9 C          62.5541   84.7012   12.1246 C.ar    1  UNL1        0.1196
     10 N          63.3159   84.1519   10.9551 N.ar    1  UNL1       -0.2220
     11 C          62.8873   84.9022    9.7290 C.ar    1  UNL1        0.1829
     12 N          62.2339   88.8676   10.5206 N.am    1  UNL1       -0.2788
     13 C          61.6343   89.3064   11.8236 C.2     1  UNL1        0.2571
     14 O          60.1499   89.2365   12.0275 O.2     1  UNL1       -0.2692
     15 H          63.2082   88.9135   10.3868 H       1  UNL1        0.1552
     16 C          62.5192   89.8153   12.9228 C.ar    1  UNL1        0.1036
     17 C          62.2521   89.6998   14.3943 C.ar    1  UNL1        0.1105
     18 N          63.3943   90.3421   15.1245 N.ar    1  UNL1       -0.2351
     19 C          64.3673   90.8544   14.1041 C.ar    1  UNL1        0.1285
     20 S          63.8264   90.5288   12.7434 S.2     1  UNL1       -0.0604
     21 C          65.6549   91.5670   14.3936 C.ar    1  UNL1        0.1050
     22 C          65.8657   92.2238   15.7257 C.ar    1  UNL1        0.0212
     23 C          67.1533   92.9365   16.0152 C.ar    1  UNL1        0.0032
     24 C          68.2303   92.9925   14.9727 C.ar    1  UNL1        0.0207
     25 C          68.0197   92.3358   13.6406 C.ar    1  UNL1        0.0989
     26 N          66.7319   91.6231   13.3511 N.ar    1  UNL1       -0.2418
     27 N          59.8621   90.8001    5.7368 N.2     1  UNL1       -0.0873
     28 C          59.0679   89.7848    6.5037 C.2     1  UNL1        0.0974
     29 C          57.5754   89.7369    6.3614 C.3     1  UNL1        0.0555
     30 C          59.9197   92.4282    3.7129 C.3     1  UNL1        0.2885
     31 O          59.1639   91.7675    4.8276 O.2     1  UNL1       -0.3734
@<TRIPOS>BOND
     1    30    31    1
     2    31    27    1
     3    27    28    2
     4    28    29    1
     5    28     1    1
     6     1     2   ar
     7     2     3   ar
     8     3     4   ar
     9     4     7    1
    10     7     8   ar
    11     8     9   ar
    12     9    10   ar
    13    10    11   ar
    14     4     5   ar
    15     5    12    1
    16    12    13   am
    17    13    14    2
    18    13    16    1
    19    16    17   ar
    20    17    18   ar
    21    18    19   ar
    22    19    21    1
    23    21    22   ar
    24    22    23   ar
    25    23    24   ar
    26    24    25   ar
    27    25    26   ar
    28    19    20   ar
    29     5     6   ar
    30     6     1   ar
    31    11     7   ar
    32    20    16   ar
    33    26    21   ar
    34    12    15    1
