@<TRIPOS>MOLECULE
*****
 25 26 0 0 0
SMALL
GASTEIGER

@<TRIPOS>ATOM
      1 O          62.8696   86.8299    9.8005 O.2     1  UNL1       -0.1499
      2 S          61.7080   86.9504   10.7418 S.O2    1  UNL1        0.0736
      3 O          60.8605   87.0038   11.6107 O.2     1  UNL1       -0.1499
      4 C          60.8334   87.3920    9.6060 C.ar    1  UNL1        0.1290
      5 C          60.1666   86.3712    8.7321 C.ar    1  UNL1        0.0201
      6 C          59.2920   86.8127    7.5963 C.ar    1  UNL1        0.0014
      7 C          59.0841   88.2749    7.3343 C.ar    1  UNL1        0.0000
      8 C          59.7509   89.2956    8.2082 C.ar    1  UNL1        0.0052
      9 C          60.6255   88.8542    9.3440 C.ar    1  UNL1        0.0902
     10 C          61.2922   89.8749   10.2178 C.3     1  UNL1        0.4198
     11 F          61.9589   90.8957   11.0916 F       1  UNL1       -0.1658
     12 F          60.0374   89.9991   11.0302 F       1  UNL1       -0.1658
     13 F          62.3668   89.8759    9.6509 F       1  UNL1       -0.1658
     14 N          62.5826   86.5089   11.8777 N.pl3   1  UNL1       -0.2135
     15 H          63.1476   87.1642   12.3474 H       1  UNL1        0.1738
     16 C          62.5963   85.0690   12.2979 C.ar    1  UNL1        0.0839
     17 C          62.6850   83.9866   11.2633 C.ar    1  UNL1        0.0189
     18 C          62.6987   82.5468   11.6835 C.ar    1  UNL1        0.0244
     19 C          62.6237   82.1894   13.1384 C.ar    1  UNL1        0.1527
     20 N          62.5350   83.2718   14.1730 N.ar    1  UNL1       -0.2385
     21 C          62.5213   84.7116   13.7527 C.ar    1  UNL1        0.1145
     22 C          62.6374   80.7494   13.5586 C.3     1  UNL1        0.4348
     23 F          62.6512   79.3096   13.9788 F       1  UNL1       -0.1644
     24 F          61.1376   80.7318   13.5473 F       1  UNL1       -0.1644
     25 F          64.1372   80.7671   13.5700 F       1  UNL1       -0.1644
@<TRIPOS>BOND
     1     1     2    2
     2     2     3    2
     3     2    14    1
     4    14    16    1
     5    16    17   ar
     6    17    18   ar
     7    18    19   ar
     8    19    22    1
     9    22    23    1
    10    22    24    1
    11    22    25    1
    12    19    20   ar
    13    20    21   ar
    14     2     4    1
    15     4     5   ar
    16     5     6   ar
    17     6     7   ar
    18     7     8   ar
    19     8     9   ar
    20     9    10    1
    21    10    11    1
    22    10    12    1
    23    10    13    1
    24    21    16   ar
    25     9     4   ar
    26    14    15    1
@<TRIPOS>MOLECULE
*****
 25 26 0 0 0
SMALL
GASTEIGER

@<TRIPOS>ATOM
      1 O          63.1353   89.5787   11.1447 O.2     1  UNL1       -0.1499
      2 S          62.5699   89.8151   12.5138 S.O2    1  UNL1        0.0736
      3 O          61.9941   89.9286   13.5776 O.2     1  UNL1       -0.1499
      4 C          63.7986   90.5903   12.8873 C.ar    1  UNL1        0.1290
      5 C          64.1983   91.7939   12.0864 C.ar    1  UNL1        0.0201
      6 C          65.4269   92.5691   12.4599 C.ar    1  UNL1        0.0014
      7 C          66.2558   92.1407   13.6343 C.ar    1  UNL1        0.0000
      8 C          65.8561   90.9371   14.4353 C.ar    1  UNL1        0.0052
      9 C          64.6275   90.1619   14.0618 C.ar    1  UNL1        0.0902
     10 C          64.2278   88.9583   14.8627 C.3     1  UNL1        0.4198
     11 F          63.8281   87.7547   15.6637 F       1  UNL1       -0.1658
     12 F          63.7770   89.8516   15.9802 F       1  UNL1       -0.1658
     13 F          64.5507   88.1213   14.0434 F       1  UNL1       -0.1658
     14 N          61.3413   89.0399   12.1403 N.pl3   1  UNL1       -0.2135
     15 H          60.5158   89.1422   12.6668 H       1  UNL1        0.1738
     16 C          61.3705   88.1088   10.9645 C.ar    1  UNL1        0.0839
     17 C          62.1623   86.8368   11.0346 C.ar    1  UNL1        0.0189
     18 C          62.1914   85.9058    9.8589 C.ar    1  UNL1        0.0244
     19 C          61.4288   86.2468    8.6131 C.ar    1  UNL1        0.1527
     20 N          60.6369   87.5189    8.5430 N.ar    1  UNL1       -0.2385
     21 C          60.6078   88.4498    9.7187 C.ar    1  UNL1        0.1145
     22 C          61.4579   85.3158    7.4373 C.3     1  UNL1        0.4348
     23 F          61.4871   84.3848    6.2616 F       1  UNL1       -0.1644
     24 F          62.9409   85.1586    7.5985 F       1  UNL1       -0.1644
     25 F          59.9749   85.4729    7.2762 F       1  UNL1       -0.1644
@<TRIPOS>BOND
     1     1     2    2
     2     2     3    2
     3     2    14    1
     4    14    16    1
     5    16    17   ar
     6    17    18   ar
     7    18    19   ar
     8    19    22    1
     9    22    23    1
    10    22    24    1
    11    22    25    1
    12    19    20   ar
    13    20    21   ar
    14     2     4    1
    15     4     5   ar
    16     5     6   ar
    17     6     7   ar
    18     7     8   ar
    19     8     9   ar
    20     9    10    1
    21    10    11    1
    22    10    12    1
    23    10    13    1
    24    21    16   ar
    25     9     4   ar
    26    14    15    1
@<TRIPOS>MOLECULE
*****
 25 26 0 0 0
SMALL
GASTEIGER

@<TRIPOS>ATOM
      1 O          62.8859   88.6245   10.1843 O.2     1  UNL1       -0.1499
      2 S          61.5945   88.7243   10.9408 S.O2    1  UNL1        0.0736
      3 O          60.6284   88.8628   11.6645 O.2     1  UNL1       -0.1499
      4 C          60.8637   88.1341    9.7713 C.ar    1  UNL1        0.1290
      5 C          60.0356   89.0142    8.8826 C.ar    1  UNL1        0.0201
      6 C          59.3049   88.4240    7.7132 C.ar    1  UNL1        0.0014
      7 C          59.4023   86.9538    7.4323 C.ar    1  UNL1        0.0000
      8 C          60.2304   86.0737    8.3210 C.ar    1  UNL1        0.0052
      9 C          60.9611   86.6638    9.4904 C.ar    1  UNL1        0.0902
     10 C          61.7892   85.7837   10.3791 C.3     1  UNL1        0.4198
     11 F          62.6173   84.9036   11.2677 F       1  UNL1       -0.1658
     12 F          62.8529   85.7187    9.3234 F       1  UNL1       -0.1658
     13 F          61.0158   85.7491   11.3155 F       1  UNL1       -0.1658
     14 N          62.3252   89.3144   12.1103 N.pl3   1  UNL1       -0.2135
     15 H          62.1771   88.9558   13.0151 H       1  UNL1        0.1738
     16 C          63.2815   90.4510   11.9012 C.ar    1  UNL1        0.0839
     17 C          64.2548   90.8206   12.9811 C.ar    1  UNL1        0.0189
     18 C          65.2110   91.9571   12.7720 C.ar    1  UNL1        0.0244
     19 C          65.1940   92.7241   11.4830 C.ar    1  UNL1        0.1527
     20 N          64.2208   92.3545   10.4031 N.ar    1  UNL1       -0.2385
     21 C          63.2645   91.2180   10.6122 C.ar    1  UNL1        0.1145
     22 C          66.1504   93.8607   11.2739 C.3     1  UNL1        0.4348
     23 F          67.1067   94.9972   11.0647 F       1  UNL1       -0.1644
     24 F          66.0238   94.2335   12.7213 F       1  UNL1       -0.1644
     25 F          66.2769   93.4879    9.8265 F       1  UNL1       -0.1644
@<TRIPOS>BOND
     1     1     2    2
     2     2     3    2
     3     2    14    1
     4    14    16    1
     5    16    17   ar
     6    17    18   ar
     7    18    19   ar
     8    19    22    1
     9    22    23    1
    10    22    24    1
    11    22    25    1
    12    19    20   ar
    13    20    21   ar
    14     2     4    1
    15     4     5   ar
    16     5     6   ar
    17     6     7   ar
    18     7     8   ar
    19     8     9   ar
    20     9    10    1
    21    10    11    1
    22    10    12    1
    23    10    13    1
    24    21    16   ar
    25     9     4   ar
    26    14    15    1
@<TRIPOS>MOLECULE
*****
 25 26 0 0 0
SMALL
GASTEIGER

@<TRIPOS>ATOM
      1 O          63.4006   89.7644   10.7261 O.2     1  UNL1       -0.1499
      2 S          62.5194   89.6062   11.9296 S.O2    1  UNL1        0.0736
      3 O          61.8365   89.6202   12.9344 O.2     1  UNL1       -0.1499
      4 C          62.2617   88.1772   11.5532 C.ar    1  UNL1        0.1290
      5 C          63.0480   87.0771   12.2025 C.ar    1  UNL1        0.0201
      6 C          62.7904   85.6482   11.8261 C.ar    1  UNL1        0.0014
      7 C          61.7464   85.3193   10.8005 C.ar    1  UNL1        0.0000
      8 C          60.9601   86.4194   10.1513 C.ar    1  UNL1        0.0052
      9 C          61.2177   87.8484   10.5276 C.ar    1  UNL1        0.0902
     10 C          60.4314   88.9484    9.8783 C.3     1  UNL1        0.4198
     11 F          59.6451   90.0485    9.2291 F       1  UNL1       -0.1658
     12 F          59.4819   88.9550   11.0395 F       1  UNL1       -0.1658
     13 F          61.1172   89.0518    8.8807 F       1  UNL1       -0.1658
     14 N          62.7771   91.0351   12.3060 N.pl3   1  UNL1       -0.2135
     15 H          62.0777   91.7142   12.1686 H       1  UNL1        0.1738
     16 C          64.1005   91.4295   12.8919 C.ar    1  UNL1        0.0839
     17 C          64.5645   90.8137   14.1785 C.ar    1  UNL1        0.0189
     18 C          65.8879   91.2081   14.7643 C.ar    1  UNL1        0.0244
     19 C          66.7472   92.2182   14.0634 C.ar    1  UNL1        0.1527
     20 N          66.2832   92.8340   12.7768 N.ar    1  UNL1       -0.2385
     21 C          64.9598   92.4396   12.1910 C.ar    1  UNL1        0.1145
     22 C          68.0706   92.6126   14.6493 C.3     1  UNL1        0.4348
     23 F          69.3940   93.0069   15.2351 F       1  UNL1       -0.1644
     24 F          67.3649   93.3947   15.7171 F       1  UNL1       -0.1644
     25 F          68.7763   91.8304   13.5815 F       1  UNL1       -0.1644
@<TRIPOS>BOND
     1     1     2    2
     2     2     3    2
     3     2    14    1
     4    14    16    1
     5    16    17   ar
     6    17    18   ar
     7    18    19   ar
     8    19    22    1
     9    22    23    1
    10    22    24    1
    11    22    25    1
    12    19    20   ar
    13    20    21   ar
    14     2     4    1
    15     4     5   ar
    16     5     6   ar
    17     6     7   ar
    18     7     8   ar
    19     8     9   ar
    20     9    10    1
    21    10    11    1
    22    10    12    1
    23    10    13    1
    24    21    16   ar
    25     9     4   ar
    26    14    15    1
@<TRIPOS>MOLECULE
*****
 25 26 0 0 0
SMALL
GASTEIGER

@<TRIPOS>ATOM
      1 O          60.2778   88.2758   11.8328 O.2     1  UNL1       -0.1499
      2 S          61.5270   88.3725   11.0081 S.O2    1  UNL1        0.0736
      3 O          62.6044   88.5038   10.4622 O.2     1  UNL1       -0.1499
      4 C          60.7861   87.8297    9.8221 C.ar    1  UNL1        0.1290
      5 C          59.8207   88.7030    9.0769 C.ar    1  UNL1        0.0201
      6 C          59.0798   88.1603    7.8910 C.ar    1  UNL1        0.0014
      7 C          59.3043   86.7442    7.4502 C.ar    1  UNL1        0.0000
      8 C          60.2696   85.8709    8.1954 C.ar    1  UNL1        0.0052
      9 C          61.0105   86.4136    9.3814 C.ar    1  UNL1        0.0902
     10 C          61.9759   85.5403   10.1265 C.3     1  UNL1        0.4198
     11 F          62.9413   84.6669   10.8717 F       1  UNL1       -0.1658
     12 F          62.9619   85.6722    9.0038 F       1  UNL1       -0.1658
     13 F          61.2786   85.3480   11.1027 F       1  UNL1       -0.1658
     14 N          62.2679   88.9152   12.1940 N.pl3   1  UNL1       -0.2135
     15 H          62.1628   88.4913   13.0763 H       1  UNL1        0.1738
     16 C          63.1690   90.1040   12.0356 C.ar    1  UNL1        0.0839
     17 C          64.0582   90.5271   13.1671 C.ar    1  UNL1        0.0189
     18 C          64.9592   91.7158   13.0087 C.ar    1  UNL1        0.0244
     19 C          64.9710   92.4814   11.7188 C.ar    1  UNL1        0.1527
     20 N          64.0818   92.0583   10.5874 N.ar    1  UNL1       -0.2385
     21 C          63.1808   90.8696   10.7458 C.ar    1  UNL1        0.1145
     22 C          65.8721   93.6701   11.5604 C.3     1  UNL1        0.4348
     23 F          66.7731   94.8588   11.4021 F       1  UNL1       -0.1644
     24 F          65.7521   93.5625   10.0692 F       1  UNL1       -0.1644
     25 F          65.9921   93.7777   13.0517 F       1  UNL1       -0.1644
@<TRIPOS>BOND
     1     1     2    2
     2     2     3    2
     3     2    14    1
     4    14    16    1
     5    16    17   ar
     6    17    18   ar
     7    18    19   ar
     8    19    22    1
     9    22    23    1
    10    22    24    1
    11    22    25    1
    12    19    20   ar
    13    20    21   ar
    14     2     4    1
    15     4     5   ar
    16     5     6   ar
    17     6     7   ar
    18     7     8   ar
    19     8     9   ar
    20     9    10    1
    21    10    11    1
    22    10    12    1
    23    10    13    1
    24    21    16   ar
    25     9     4   ar
    26    14    15    1
@<TRIPOS>MOLECULE
*****
 25 26 0 0 0
SMALL
GASTEIGER

@<TRIPOS>ATOM
      1 O          63.3659   88.3707   11.9385 O.2     1  UNL1       -0.1499
      2 S          62.3412   87.2767   11.8838 S.O2    1  UNL1        0.0736
      3 O          61.5998   86.3154   11.9317 O.2     1  UNL1       -0.1499
      4 C          61.5066   88.1049   10.9523 C.ar    1  UNL1        0.1290
      5 C          60.8637   89.3680   11.4436 C.ar    1  UNL1        0.0201
      6 C          60.0292   90.1962   10.5122 C.ar    1  UNL1        0.0014
      7 C          59.8376   89.7614    9.0895 C.ar    1  UNL1        0.0000
      8 C          60.4806   88.4984    8.5981 C.ar    1  UNL1        0.0052
      9 C          61.3151   87.6702    9.5295 C.ar    1  UNL1        0.0902
     10 C          61.9580   86.4072    9.0382 C.3     1  UNL1        0.4198
     11 F          62.6010   85.1442    8.5469 F       1  UNL1       -0.1658
     12 F          60.6503   85.6863    9.1798 F       1  UNL1       -0.1658
     13 F          63.0729   86.8620    8.8758 F       1  UNL1       -0.1658
     14 N          63.1757   86.4484   12.8152 N.pl3   1  UNL1       -0.2135
     15 H          63.8867   86.8725   13.3480 H       1  UNL1        0.1738
     16 C          62.9269   84.9740   12.9349 C.ar    1  UNL1        0.0839
     17 C          63.0203   84.0968   11.7218 C.ar    1  UNL1        0.0189
     18 C          62.7715   82.6224   11.8415 C.ar    1  UNL1        0.0244
     19 C          62.4293   82.0253   13.1743 C.ar    1  UNL1        0.1527
     20 N          62.3359   82.9026   14.3874 N.ar    1  UNL1       -0.2385
     21 C          62.5847   84.3769   14.2677 C.ar    1  UNL1        0.1145
     22 C          62.1805   80.5509   13.2940 C.3     1  UNL1        0.4348
     23 F          61.9317   79.0766   13.4136 F       1  UNL1       -0.1644
     24 F          61.3493   80.7906   14.5194 F       1  UNL1       -0.1644
     25 F          63.0116   80.3113   12.0685 F       1  UNL1       -0.1644
@<TRIPOS>BOND
     1     1     2    2
     2     2     3    2
     3     2    14    1
     4    14    16    1
     5    16    17   ar
     6    17    18   ar
     7    18    19   ar
     8    19    22    1
     9    22    23    1
    10    22    24    1
    11    22    25    1
    12    19    20   ar
    13    20    21   ar
    14     2     4    1
    15     4     5   ar
    16     5     6   ar
    17     6     7   ar
    18     7     8   ar
    19     8     9   ar
    20     9    10    1
    21    10    11    1
    22    10    12    1
    23    10    13    1
    24    21    16   ar
    25     9     4   ar
    26    14    15    1
@<TRIPOS>MOLECULE
*****
 25 26 0 0 0
SMALL
GASTEIGER

@<TRIPOS>ATOM
      1 O          65.7808   90.4187   14.5013 O.2     1  UNL1       -0.1499
      2 S          64.3675   90.9065   14.3814 S.O2    1  UNL1        0.0736
      3 O          63.1958   91.2266   14.4094 O.2     1  UNL1       -0.1499
      4 C          64.7263   91.6366   13.1211 C.ar    1  UNL1        0.1290
      5 C          65.7599   92.7233   13.1522 C.ar    1  UNL1        0.0201
      6 C          66.1188   93.4534   11.8920 C.ar    1  UNL1        0.0014
      7 C          65.4441   93.0968   10.6007 C.ar    1  UNL1        0.0000
      8 C          64.4105   92.0102   10.5695 C.ar    1  UNL1        0.0052
      9 C          64.0517   91.2801   11.8297 C.ar    1  UNL1        0.0902
     10 C          63.0181   90.1934   11.7986 C.3     1  UNL1        0.4198
     11 F          61.9846   89.1068   11.7674 F       1  UNL1       -0.1658
     12 F          61.9474   91.2184   11.5683 F       1  UNL1       -0.1658
     13 F          63.7768   89.2621   11.9806 F       1  UNL1       -0.1658
     14 N          64.0086   90.1765   15.6416 N.pl3   1  UNL1       -0.2135
     15 H          63.8709   90.6769   16.4782 H       1  UNL1        0.1738
     16 C          63.8595   88.6839   15.6272 C.ar    1  UNL1        0.0839
     17 C          64.4316   87.8839   14.4947 C.ar    1  UNL1        0.0189
     18 C          64.2824   86.3915   14.4803 C.ar    1  UNL1        0.0244
     19 C          63.5612   85.6990   15.5985 C.ar    1  UNL1        0.1527
     20 N          62.9891   86.4990   16.7310 N.ar    1  UNL1       -0.2385
     21 C          63.1382   87.9915   16.7454 C.ar    1  UNL1        0.1145
     22 C          63.4120   84.2065   15.5841 C.3     1  UNL1        0.4348
     23 F          63.2629   82.7140   15.5697 F       1  UNL1       -0.1644
     24 F          62.0951   84.3312   16.2912 F       1  UNL1       -0.1644
     25 F          64.7290   84.0817   14.8770 F       1  UNL1       -0.1644
@<TRIPOS>BOND
     1     1     2    2
     2     2     3    2
     3     2    14    1
     4    14    16    1
     5    16    17   ar
     6    17    18   ar
     7    18    19   ar
     8    19    22    1
     9    22    23    1
    10    22    24    1
    11    22    25    1
    12    19    20   ar
    13    20    21   ar
    14     2     4    1
    15     4     5   ar
    16     5     6   ar
    17     6     7   ar
    18     7     8   ar
    19     8     9   ar
    20     9    10    1
    21    10    11    1
    22    10    12    1
    23    10    13    1
    24    21    16   ar
    25     9     4   ar
    26    14    15    1
@<TRIPOS>MOLECULE
*****
 25 26 0 0 0
SMALL
GASTEIGER

@<TRIPOS>ATOM
      1 O          62.3602   88.6850    9.5703 O.2     1  UNL1       -0.1499
      2 S          61.4075   87.7542   10.2601 S.O2    1  UNL1        0.0736
      3 O          60.6174   87.1080   10.9193 O.2     1  UNL1       -0.1499
      4 C          61.6511   86.7200    9.2012 C.ar    1  UNL1        0.1290
      5 C          62.8108   85.7770    9.3266 C.ar    1  UNL1        0.0201
      6 C          63.0545   84.7429    8.2678 C.ar    1  UNL1        0.0014
      7 C          62.1383   84.6517    7.0836 C.ar    1  UNL1        0.0000
      8 C          60.9786   85.5947    6.9583 C.ar    1  UNL1        0.0052
      9 C          60.7349   86.6288    8.0171 C.ar    1  UNL1        0.0902
     10 C          59.5751   87.5718    7.8917 C.3     1  UNL1        0.4198
     11 F          58.4154   88.5148    7.7663 F       1  UNL1       -0.1658
     12 F          58.6748   86.5476    8.5165 F       1  UNL1       -0.1658
     13 F          60.1844   88.4883    7.3770 F       1  UNL1       -0.1658
     14 N          61.1638   88.7883   11.3190 N.pl3   1  UNL1       -0.2135
     15 H          60.2427   89.0213   11.5768 H       1  UNL1        0.1738
     16 C          62.3237   89.4675   11.9851 C.ar    1  UNL1        0.0839
     17 C          63.1133   88.7448   13.0359 C.ar    1  UNL1        0.0189
     18 C          64.2731   89.4239   13.7019 C.ar    1  UNL1        0.0244
     19 C          64.6432   90.8257   13.3172 C.ar    1  UNL1        0.1527
     20 N          63.8535   91.5484   12.2664 N.ar    1  UNL1       -0.2385
     21 C          62.6938   90.8692   11.6004 C.ar    1  UNL1        0.1145
     22 C          65.8030   91.5049   13.9833 C.3     1  UNL1        0.4348
     23 F          66.9628   92.1839   14.6494 F       1  UNL1       -0.1644
     24 F          66.2848   91.9913   12.6487 F       1  UNL1       -0.1644
     25 F          65.3213   91.0185   15.3179 F       1  UNL1       -0.1644
@<TRIPOS>BOND
     1     1     2    2
     2     2     3    2
     3     2    14    1
     4    14    16    1
     5    16    17   ar
     6    17    18   ar
     7    18    19   ar
     8    19    22    1
     9    22    23    1
    10    22    24    1
    11    22    25    1
    12    19    20   ar
    13    20    21   ar
    14     2     4    1
    15     4     5   ar
    16     5     6   ar
    17     6     7   ar
    18     7     8   ar
    19     8     9   ar
    20     9    10    1
    21    10    11    1
    22    10    12    1
    23    10    13    1
    24    21    16   ar
    25     9     4   ar
    26    14    15    1
@<TRIPOS>MOLECULE
*****
 25 26 0 0 0
SMALL
GASTEIGER

@<TRIPOS>ATOM
      1 O          65.3936   89.6496   14.5254 O.2     1  UNL1       -0.1499
      2 S          64.3009   90.6564   14.7308 S.O2    1  UNL1        0.0736
      3 O          63.3654   91.3821   15.0040 O.2     1  UNL1       -0.1499
      4 C          64.8770   91.5051   13.6363 C.ar    1  UNL1        0.1290
      5 C          64.2799   91.4623   12.2609 C.ar    1  UNL1        0.0201
      6 C          64.8560   92.3109   11.1664 C.ar    1  UNL1        0.0014
      7 C          66.0292   93.2023   11.4473 C.ar    1  UNL1        0.0000
      8 C          66.6263   93.2452   12.8227 C.ar    1  UNL1        0.0052
      9 C          66.0502   92.3966   13.9172 C.ar    1  UNL1        0.0902
     10 C          66.6472   92.4394   15.2926 C.3     1  UNL1        0.4198
     11 F          67.2443   92.4822   16.6680 F       1  UNL1       -0.1658
     12 F          67.7336   91.5046   14.8501 F       1  UNL1       -0.1658
     13 F          65.8328   93.1952   15.7841 F       1  UNL1       -0.1658
     14 N          63.7247   89.8078   15.8253 N.pl3   1  UNL1       -0.2135
     15 H          63.3706   90.2302   16.6410 H       1  UNL1        0.1738
     16 C          63.6879   88.3156   15.6768 C.ar    1  UNL1        0.0839
     17 C          64.2037   87.6737   14.4231 C.ar    1  UNL1        0.0189
     18 C          64.1669   86.1815   14.2747 C.ar    1  UNL1        0.0244
     19 C          63.6144   85.3313   15.3801 C.ar    1  UNL1        0.1527
     20 N          63.0987   85.9732   16.6338 N.ar    1  UNL1       -0.2385
     21 C          63.1354   87.4654   16.7822 C.ar    1  UNL1        0.1145
     22 C          63.5777   83.8390   15.2316 C.3     1  UNL1        0.4348
     23 F          63.5409   82.3469   15.0833 F       1  UNL1       -0.1644
     24 F          64.9263   83.8710   14.5758 F       1  UNL1       -0.1644
     25 F          62.2291   83.8071   15.8875 F       1  UNL1       -0.1644
@<TRIPOS>BOND
     1     1     2    2
     2     2     3    2
     3     2    14    1
     4    14    16    1
     5    16    17   ar
     6    17    18   ar
     7    18    19   ar
     8    19    22    1
     9    22    23    1
    10    22    24    1
    11    22    25    1
    12    19    20   ar
    13    20    21   ar
    14     2     4    1
    15     4     5   ar
    16     5     6   ar
    17     6     7   ar
    18     7     8   ar
    19     8     9   ar
    20     9    10    1
    21    10    11    1
    22    10    12    1
    23    10    13    1
    24    21    16   ar
    25     9     4   ar
    26    14    15    1
