@<TRIPOS>MOLECULE
*****
 44 49 0 0 0
SMALL
GASTEIGER

@<TRIPOS>ATOM
      1 N          57.0147   95.8736   -3.6052 N.am    1  UNL1       -0.1892
      2 C          58.1621   95.8355   -4.5707 C.2     1  UNL1        0.3220
      3 O          58.0603   95.9192   -6.0648 O.2     1  UNL1       -0.2512
      4 N          59.4292   95.6991   -3.7796 N.am    1  UNL1       -0.2222
      5 C          59.0650   95.6529   -2.3252 C.3     1  UNL1        0.1391
      6 C          58.5511   95.6203   -0.9164 C.3     1  UNL1        0.0449
      7 C          59.5107   95.4892    0.2291 C.3     1  UNL1        0.0746
      8 N          60.9841   95.3908   -0.0343 N.3     1  UNL1       -0.2676
      9 C          61.4980   95.4234   -1.4431 C.3     1  UNL1        0.0746
     10 C          60.5384   95.5544   -2.5885 C.3     1  UNL1        0.0449
     11 C          57.5728   95.7607   -2.2174 C.2     1  UNL1        0.2529
     12 O          56.7781   95.7563   -0.9452 O.2     1  UNL1       -0.2724
     13 C          60.8170   95.6225   -4.3438 C.ar    1  UNL1        0.1453
     14 C          61.3537   94.3126   -4.8398 C.ar    1  UNL1        0.0922
     15 C          62.7414   94.2360   -5.4040 C.ar    1  UNL1        0.2259
     16 O          63.2781   92.9261   -5.9000 O.3     1  UNL1       -0.4919
     17 N          63.5925   95.4693   -5.4721 N.ar    1  UNL1       -0.1894
     18 C          63.0558   96.7792   -4.9761 C.ar    1  UNL1        0.2027
     19 N          61.6681   96.8558   -4.4119 N.ar    1  UNL1       -0.2084
     20 H          62.7465   92.1557   -5.8575 H       1  UNL1        0.2938
     21 C          52.6627   96.2587   -4.6829 C.ar    1  UNL1        0.0811
     22 C          53.7163   96.4741   -5.7287 C.ar    1  UNL1        0.0204
     23 C          55.1669   96.3457   -5.3695 C.ar    1  UNL1        0.0185
     24 C          55.5641   96.0019   -3.9645 C.ar    1  UNL1        0.0813
     25 C          54.5106   95.7865   -2.9188 C.ar    1  UNL1        0.1141
     26 N          53.0599   95.9149   -3.2780 N.ar    1  UNL1       -0.2425
     27 C          50.6364   96.8520   -2.5516 C.3     1  UNL1        0.0311
     28 C          50.1990   96.6837   -3.9765 C.ar    1  UNL1       -0.0204
     29 C          48.7482   96.8121   -4.3357 C.ar    1  UNL1       -0.0031
     30 C          48.3107   96.6438   -5.7606 C.ar    1  UNL1        0.0137
     31 C          49.3239   96.3472   -6.8263 C.ar    1  UNL1        0.0012
     32 C          50.7745   96.2188   -6.4670 C.ar    1  UNL1        0.0012
     33 C          51.2121   96.3871   -5.0422 C.ar    1  UNL1        0.0137
     34 C          46.8600   96.7722   -6.1198 C.2     1  UNL1        0.0729
     35 O          46.4456   96.8200   -7.5607 O.co2   1  UNL1       -0.5446
     36 O          45.8238   96.8527   -5.0383 O.co2   1  UNL1       -0.5446
     37 C          61.9436   95.2597    1.1113 C.3     1  UNL1        0.1183
     38 C          62.0925   93.9452    1.8182 C.ar    1  UNL1        0.0712
     39 N          61.0125   93.4633    2.7409 N.ar    1  UNL1       -0.2471
     40 C          61.1615   92.1487    3.4479 C.ar    1  UNL1        0.0985
     41 C          62.3904   91.3161    3.2322 C.ar    1  UNL1        0.0203
     42 C          63.4704   91.7981    2.3095 C.ar    1  UNL1       -0.0015
     43 C          63.3215   93.1126    1.6025 C.ar    1  UNL1       -0.0069
     44 C          64.4015   93.5945    0.6798 C.3     1  UNL1        0.0323
@<TRIPOS>UNITY_ATOM_ATTR
35 1
charge -1
@<TRIPOS>BOND
     1    27    28    1
     2    28    29   ar
     3    29    30   ar
     4    30    34    1
     5    34    35   ar
     6    34    36   ar
     7    30    31   ar
     8    31    32   ar
     9    32    33   ar
    10    33    21    1
    11    21    22   ar
    12    22    23   ar
    13    23    24   ar
    14    24     1    1
    15     1     2   am
    16     2     3    2
    17     2     4   am
    18     4    13    1
    19    13    14   ar
    20    14    15   ar
    21    15    16    1
    22    15    17   ar
    23    17    18   ar
    24    18    19   ar
    25     4     5    1
    26     5     6    1
    27     6     7    1
    28     7     8    1
    29     8    37    1
    30    37    38    1
    31    38    39   ar
    32    39    40   ar
    33    40    41   ar
    34    41    42   ar
    35    42    43   ar
    36    43    44    1
    37     8     9    1
    38     9    10    1
    39     5    11    1
    40    11    12    2
    41    24    25   ar
    42    25    26   ar
    43    33    28   ar
    44    26    21   ar
    45    11     1   am
    46    19    13   ar
    47    10     5    1
    48    43    38   ar
    49    16    20    1
@<TRIPOS>MOLECULE
*****
 44 49 0 0 0
SMALL
GASTEIGER

@<TRIPOS>ATOM
      1 N          57.2415   95.8657   -3.6853 N.am    1  UNL1       -0.1892
      2 C          58.3388   95.4615   -4.6249 C.2     1  UNL1        0.3220
      3 O          58.1743   95.1127   -6.0744 O.2     1  UNL1       -0.2512
      4 N          59.6293   95.4674   -3.8604 N.am    1  UNL1       -0.2222
      5 C          59.3297   95.8753   -2.4483 C.3     1  UNL1        0.1391
      6 C          58.8798   96.2941   -1.0801 C.3     1  UNL1        0.0449
      7 C          59.8802   96.4316    0.0290 C.3     1  UNL1        0.0746
      8 N          61.3306   96.1503   -0.2301 N.3     1  UNL1       -0.2676
      9 C          61.7806   95.7315   -1.5983 C.3     1  UNL1        0.0746
     10 C          60.7802   95.5940   -2.7074 C.3     1  UNL1        0.0449
     11 C          57.8540   96.1214   -2.3401 C.2     1  UNL1        0.2529
     12 O          57.1197   96.5483   -1.1038 O.2     1  UNL1       -0.2724
     13 C          60.9820   95.1255   -4.4112 C.ar    1  UNL1        0.1453
     14 C          61.7734   96.1614   -5.1532 C.ar    1  UNL1        0.0922
     15 C          63.1260   95.8194   -5.7039 C.ar    1  UNL1        0.2259
     16 O          63.9175   96.8553   -6.4459 O.3     1  UNL1       -0.4919
     17 N          63.6874   94.4416   -5.5127 N.ar    1  UNL1       -0.1894
     18 C          62.8959   93.4057   -4.7707 C.ar    1  UNL1        0.2027
     19 N          61.5433   93.7477   -4.2200 N.ar    1  UNL1       -0.2084
     20 H          63.5669   97.7160   -6.5654 H       1  UNL1        0.2938
     21 C          52.8787   96.2446   -4.7205 C.ar    1  UNL1        0.0811
     22 C          53.3022   96.1337   -3.2858 C.ar    1  UNL1        0.0204
     23 C          54.7565   96.0074   -2.9407 C.ar    1  UNL1        0.0185
     24 C          55.7872   95.9920   -4.0304 C.ar    1  UNL1        0.0813
     25 C          55.3637   96.1029   -5.4650 C.ar    1  UNL1        0.1141
     26 N          53.9094   96.2292   -5.8100 N.ar    1  UNL1       -0.2425
     27 C          50.8358   96.4982   -2.5381 C.3     1  UNL1        0.0311
     28 C          50.4030   96.4977   -3.9743 C.ar    1  UNL1       -0.0204
     29 C          48.9486   96.6240   -4.3193 C.ar    1  UNL1       -0.0031
     30 C          48.5157   96.6236   -5.7555 C.ar    1  UNL1        0.0137
     31 C          49.5372   96.4968   -6.8467 C.ar    1  UNL1        0.0012
     32 C          50.9915   96.3705   -6.5017 C.ar    1  UNL1        0.0012
     33 C          51.4244   96.3709   -5.0655 C.ar    1  UNL1        0.0137
     34 C          47.0614   96.7499   -6.1006 C.2     1  UNL1        0.0729
     35 O          46.0342   96.8098   -5.0092 O.co2   1  UNL1       -0.5446
     36 O          46.6344   96.8162   -7.5370 O.co2   1  UNL1       -0.5446
     37 C          62.3311   96.2879    0.8791 C.3     1  UNL1        0.1183
     38 C          63.4844   95.3333    0.9715 C.ar    1  UNL1        0.0712
     39 N          64.8785   95.8122    0.6938 N.ar    1  UNL1       -0.2471
     40 C          66.0319   94.8576    0.7862 C.ar    1  UNL1        0.0985
     41 C          65.7911   93.4241    1.1563 C.ar    1  UNL1        0.0203
     42 C          64.3970   92.9451    1.4339 C.ar    1  UNL1       -0.0015
     43 C          63.2437   93.8997    1.3416 C.ar    1  UNL1       -0.0069
     44 C          61.8496   93.4207    1.6192 C.3     1  UNL1        0.0323
@<TRIPOS>UNITY_ATOM_ATTR
35 1
charge -1
@<TRIPOS>BOND
     1    27    28    1
     2    28    29   ar
     3    29    30   ar
     4    30    34    1
     5    34    35   ar
     6    34    36   ar
     7    30    31   ar
     8    31    32   ar
     9    32    33   ar
    10    33    21    1
    11    21    22   ar
    12    22    23   ar
    13    23    24   ar
    14    24     1    1
    15     1     2   am
    16     2     3    2
    17     2     4   am
    18     4    13    1
    19    13    14   ar
    20    14    15   ar
    21    15    16    1
    22    15    17   ar
    23    17    18   ar
    24    18    19   ar
    25     4     5    1
    26     5     6    1
    27     6     7    1
    28     7     8    1
    29     8    37    1
    30    37    38    1
    31    38    39   ar
    32    39    40   ar
    33    40    41   ar
    34    41    42   ar
    35    42    43   ar
    36    43    44    1
    37     8     9    1
    38     9    10    1
    39     5    11    1
    40    11    12    2
    41    24    25   ar
    42    25    26   ar
    43    33    28   ar
    44    26    21   ar
    45    11     1   am
    46    19    13   ar
    47    10     5    1
    48    43    38   ar
    49    16    20    1
@<TRIPOS>MOLECULE
*****
 44 49 0 0 0
SMALL
GASTEIGER

@<TRIPOS>ATOM
      1 N          60.6769   92.7999    1.9280 N.am    1  UNL1       -0.1892
      2 C          61.9113   93.3974    1.3203 C.2     1  UNL1        0.3220
      3 O          63.2784   93.4140    1.9373 O.2     1  UNL1       -0.2512
      4 N          61.5386   93.9753   -0.0128 N.am    1  UNL1       -0.2222
      5 C          60.0738   93.7351   -0.2290 C.3     1  UNL1        0.1391
      6 C          58.6083   93.4245   -0.3048 C.3     1  UNL1        0.0449
      7 C          57.8153   93.8381   -1.5090 C.3     1  UNL1        0.0746
      8 N          58.4879   94.5622   -2.6374 N.3     1  UNL1       -0.2676
      9 C          59.9534   94.8729   -2.5616 C.3     1  UNL1        0.0746
     10 C          60.7463   94.4593   -1.3574 C.3     1  UNL1        0.0449
     11 C          59.5412   93.0087    0.9705 C.2     1  UNL1        0.2529
     12 O          58.1222   92.5682    1.1763 O.2     1  UNL1       -0.2724
     13 C          62.4675   94.6713   -0.9628 C.ar    1  UNL1        0.1453
     14 C          63.1924   93.8848   -2.0144 C.ar    1  UNL1        0.0922
     15 C          64.1213   94.5809   -2.9645 C.ar    1  UNL1        0.2259
     16 O          64.8462   93.7944   -4.0161 O.3     1  UNL1       -0.4919
     17 N          64.3253   96.0636   -2.8630 N.ar    1  UNL1       -0.1894
     18 C          63.6004   96.8501   -1.8114 C.ar    1  UNL1        0.2027
     19 N          62.6715   96.1540   -0.8614 N.ar    1  UNL1       -0.2084
     20 H          64.7189   92.8683   -4.0795 H       1  UNL1        0.2938
     21 C          60.4248   90.7427    5.9222 C.ar    1  UNL1        0.0811
     22 C          59.2279   91.4593    5.3708 C.ar    1  UNL1        0.0204
     23 C          59.3120   92.1451    4.0394 C.ar    1  UNL1        0.0185
     24 C          60.5929   92.1142    3.2594 C.ar    1  UNL1        0.0813
     25 C          61.7896   91.3976    3.8108 C.ar    1  UNL1        0.1141
     26 N          61.7056   90.7118    5.1422 N.ar    1  UNL1       -0.2425
     27 C          58.6758   88.3285    6.2583 C.3     1  UNL1        0.0311
     28 C          59.4663   88.8498    7.4216 C.ar    1  UNL1       -0.0204
     29 C          59.3822   88.1640    8.7531 C.ar    1  UNL1       -0.0031
     30 C          60.1727   88.6854    9.9165 C.ar    1  UNL1        0.0137
     31 C          61.0472   89.8925    9.7484 C.ar    1  UNL1        0.0012
     32 C          61.1312   90.5783    8.4170 C.ar    1  UNL1        0.0012
     33 C          60.3408   90.0569    7.2536 C.ar    1  UNL1        0.0137
     34 C          60.0886   87.9996   11.2479 C.2     1  UNL1        0.0729
     35 O          59.2042   88.5565   12.3238 O.co2   1  UNL1       -0.5446
     36 O          60.8891   86.7570   11.5034 O.co2   1  UNL1       -0.5446
     37 C          57.6948   94.9758   -3.8416 C.3     1  UNL1        0.1183
     38 C          57.3503   93.9659   -4.8958 C.ar    1  UNL1        0.0712
     39 N          56.1844   93.0431   -4.6980 N.ar    1  UNL1       -0.2471
     40 C          55.8399   92.0332   -5.7522 C.ar    1  UNL1        0.0985
     41 C          56.6613   91.9461   -7.0043 C.ar    1  UNL1        0.0203
     42 C          57.8272   92.8689   -7.2021 C.ar    1  UNL1       -0.0015
     43 C          58.1717   93.8788   -6.1480 C.ar    1  UNL1       -0.0069
     44 C          59.3376   94.8015   -6.3458 C.3     1  UNL1        0.0323
@<TRIPOS>UNITY_ATOM_ATTR
35 1
charge -1
@<TRIPOS>BOND
     1    27    28    1
     2    28    29   ar
     3    29    30   ar
     4    30    34    1
     5    34    35   ar
     6    34    36   ar
     7    30    31   ar
     8    31    32   ar
     9    32    33   ar
    10    33    21    1
    11    21    22   ar
    12    22    23   ar
    13    23    24   ar
    14    24     1    1
    15     1     2   am
    16     2     3    2
    17     2     4   am
    18     4    13    1
    19    13    14   ar
    20    14    15   ar
    21    15    16    1
    22    15    17   ar
    23    17    18   ar
    24    18    19   ar
    25     4     5    1
    26     5     6    1
    27     6     7    1
    28     7     8    1
    29     8    37    1
    30    37    38    1
    31    38    39   ar
    32    39    40   ar
    33    40    41   ar
    34    41    42   ar
    35    42    43   ar
    36    43    44    1
    37     8     9    1
    38     9    10    1
    39     5    11    1
    40    11    12    2
    41    24    25   ar
    42    25    26   ar
    43    33    28   ar
    44    26    21   ar
    45    11     1   am
    46    19    13   ar
    47    10     5    1
    48    43    38   ar
    49    16    20    1
@<TRIPOS>MOLECULE
*****
 44 49 0 0 0
SMALL
GASTEIGER

@<TRIPOS>ATOM
      1 N          60.5053   92.7334    2.0646 N.am    1  UNL1       -0.1892
      2 C          61.7239   93.3620    1.4564 C.2     1  UNL1        0.3220
      3 O          63.0892   93.4175    2.0749 O.2     1  UNL1       -0.2512
      4 N          61.3374   93.9253    0.1210 N.am    1  UNL1       -0.2222
      5 C          59.8799   93.6449   -0.0962 C.3     1  UNL1        0.1391
      6 C          58.4234   93.2946   -0.1728 C.3     1  UNL1        0.0449
      7 C          57.6211   93.6827   -1.3793 C.3     1  UNL1        0.0746
      8 N          58.2753   94.4211   -2.5092 N.3     1  UNL1       -0.2676
      9 C          59.7318   94.7714   -2.4327 C.3     1  UNL1        0.0746
     10 C          60.5341   94.3833   -1.2262 C.3     1  UNL1        0.0449
     11 C          59.3656   92.9082    1.1050 C.2     1  UNL1        0.2529
     12 O          57.9587   92.4304    1.3106 O.2     1  UNL1       -0.2724
     13 C          62.2484   94.6430   -0.8303 C.ar    1  UNL1        0.1453
     14 C          63.0489   93.8658   -1.8328 C.ar    1  UNL1        0.0922
     15 C          63.9599   94.5836   -2.7840 C.ar    1  UNL1        0.2259
     16 O          64.7604   93.8064   -3.7865 O.3     1  UNL1       -0.4919
     17 N          64.0704   96.0787   -2.7328 N.ar    1  UNL1       -0.1894
     18 C          63.2699   96.8559   -1.7303 C.ar    1  UNL1        0.2027
     19 N          62.3589   96.1381   -0.7790 N.ar    1  UNL1       -0.2084
     20 H          64.6914   92.8725   -3.8186 H       1  UNL1        0.2938
     21 C          60.3037   90.6830    6.0652 C.ar    1  UNL1        0.0811
     22 C          59.0911   91.3728    5.5140 C.ar    1  UNL1        0.0204
     23 C          59.1583   92.0563    4.1805 C.ar    1  UNL1        0.0185
     24 C          60.4381   92.0499    3.3981 C.ar    1  UNL1        0.0813
     25 C          61.6506   91.3602    3.9493 C.ar    1  UNL1        0.1141
     26 N          61.5834   90.6767    5.2828 N.ar    1  UNL1       -0.2425
     27 C          58.9875   87.9983    6.3102 C.3     1  UNL1        0.0311
     28 C          59.5784   88.6573    7.5212 C.ar    1  UNL1       -0.0204
     29 C          59.5112   87.9737    8.8548 C.ar    1  UNL1       -0.0031
     30 C          60.1020   88.6327   10.0659 C.ar    1  UNL1        0.0137
     31 C          60.7602   89.9751    9.9434 C.ar    1  UNL1        0.0012
     32 C          60.8274   90.6585    8.6098 C.ar    1  UNL1        0.0012
     33 C          60.2365   89.9996    7.3988 C.ar    1  UNL1        0.0137
     34 C          60.0348   87.9492   11.3995 C.2     1  UNL1        0.0729
     35 O          59.1262   88.4792   12.4688 O.co2   1  UNL1       -0.5446
     36 O          60.8763   86.7358   11.6636 O.co2   1  UNL1       -0.5446
     37 C          57.4730   94.8092   -3.7158 C.3     1  UNL1        0.1183
     38 C          56.1312   95.4582   -3.5472 C.ar    1  UNL1        0.0712
     39 N          55.8131   96.2065   -2.2867 N.ar    1  UNL1       -0.2471
     40 C          54.4713   96.8556   -2.1181 C.ar    1  UNL1        0.0985
     41 C          53.4477   96.7563   -3.2100 C.ar    1  UNL1        0.0203
     42 C          53.7658   96.0080   -4.4705 C.ar    1  UNL1       -0.0015
     43 C          55.1075   95.3590   -4.6391 C.ar    1  UNL1       -0.0069
     44 C          55.4257   94.6107   -5.8996 C.3     1  UNL1        0.0323
@<TRIPOS>UNITY_ATOM_ATTR
35 1
charge -1
@<TRIPOS>BOND
     1    27    28    1
     2    28    29   ar
     3    29    30   ar
     4    30    34    1
     5    34    35   ar
     6    34    36   ar
     7    30    31   ar
     8    31    32   ar
     9    32    33   ar
    10    33    21    1
    11    21    22   ar
    12    22    23   ar
    13    23    24   ar
    14    24     1    1
    15     1     2   am
    16     2     3    2
    17     2     4   am
    18     4    13    1
    19    13    14   ar
    20    14    15   ar
    21    15    16    1
    22    15    17   ar
    23    17    18   ar
    24    18    19   ar
    25     4     5    1
    26     5     6    1
    27     6     7    1
    28     7     8    1
    29     8    37    1
    30    37    38    1
    31    38    39   ar
    32    39    40   ar
    33    40    41   ar
    34    41    42   ar
    35    42    43   ar
    36    43    44    1
    37     8     9    1
    38     9    10    1
    39     5    11    1
    40    11    12    2
    41    24    25   ar
    42    25    26   ar
    43    33    28   ar
    44    26    21   ar
    45    11     1   am
    46    19    13   ar
    47    10     5    1
    48    43    38   ar
    49    16    20    1
