@<TRIPOS>MOLECULE
*****
 45 49 0 0 0
SMALL
GASTEIGER

@<TRIPOS>ATOM
      1 C          59.0485   88.7314    6.9624 C.3     1  UNL1        0.1740
      2 N          60.5252   89.8300    8.7959 N.am    1  UNL1       -0.2825
      3 C          60.0118   88.6017    8.1048 C.2     1  UNL1        0.2461
      4 O          60.4617   87.2438    8.5562 O.2     1  UNL1       -0.2729
      5 H          60.2299   90.7213    8.4997 H       1  UNL1        0.1549
      6 C          63.4152   89.4413   12.2234 C.ar    1  UNL1       -0.0022
      7 C          62.5028   88.3016   11.8787 C.ar    1  UNL1       -0.0017
      8 C          61.5395   88.4313   10.7363 C.ar    1  UNL1        0.0144
      9 C          61.4886   89.7005    9.9384 C.ar    1  UNL1        0.0503
     10 C          62.4010   90.8401   10.2830 C.ar    1  UNL1        0.0182
     11 C          63.3643   90.7105   11.4255 C.ar    1  UNL1        0.0700
     12 C          64.2767   91.8501   11.7701 C.3     1  UNL1        0.4184
     13 F          65.1891   92.9897   12.1147 F       1  UNL1       -0.1659
     14 F          63.6970   91.8961   13.1528 F       1  UNL1       -0.1659
     15 F          64.8564   91.8041   10.3875 F       1  UNL1       -0.1659
     16 C          64.3785   89.3117   13.3658 C.3     1  UNL1        0.0992
     17 C          62.7255   86.4505   18.3739 C.3     1  UNL1        0.0897
     18 N          63.1388   87.1658   17.1219 N.3     1  UNL1       -0.2691
     19 C          63.7523   86.3993   15.9879 C.3     1  UNL1        0.0897
     20 C          64.1656   87.1145   14.7359 C.3     1  UNL1        0.0899
     21 N          63.9653   88.5964   14.6178 N.3     1  UNL1       -0.2665
     22 C          63.3517   89.3629   15.7518 C.3     1  UNL1        0.0899
     23 C          62.9385   88.6476   17.0038 C.3     1  UNL1        0.0897
     24 N          58.5779   90.0879    6.5284 N.pl3   1  UNL1       -0.3235
     25 H          57.7815   90.4894    6.9453 H       1  UNL1        0.1473
     26 C          59.3207   90.8328    5.4591 C.ar    1  UNL1        0.0728
     27 C          60.7823   90.5743    5.2424 C.ar    1  UNL1        0.0166
     28 C          61.5252   91.3192    4.1731 C.ar    1  UNL1        0.0015
     29 C          60.8065   92.3226    3.3207 C.ar    1  UNL1        0.0038
     30 C          59.3449   92.5811    3.5375 C.ar    1  UNL1        0.0310
     31 C          58.6021   91.8363    4.6067 C.ar    1  UNL1        0.1531
     32 F          57.1405   92.0948    4.8235 F       1  UNL1       -0.2029
     33 C          61.5494   93.0675    2.2515 C.ar    1  UNL1        0.0193
     34 C          63.0240   92.8556    2.0762 C.ar    1  UNL1        0.0044
     35 C          63.7669   93.6005    1.0069 C.ar    1  UNL1        0.0345
     36 C          63.0352   94.5573    0.1130 C.ar    1  UNL1        0.1342
     37 N          61.5606   94.7692    0.2882 N.ar    1  UNL1       -0.2290
     38 C          60.8177   94.0243    1.3575 C.ar    1  UNL1        0.1003
     39 N          63.7780   95.3022   -0.9562 N.am    1  UNL1       -0.2694
     40 C          63.9582   94.6865   -2.3122 C.2     1  UNL1        0.2267
     41 O          63.3955   93.3259   -2.5988 O.2     1  UNL1       -0.2748
     42 H          64.1473   96.1952   -0.7681 H       1  UNL1        0.1563
     43 C          64.7011   95.4314   -3.3814 C.3     1  UNL1        0.0769
     44 C          65.1437   95.5564   -4.8091 C.3     1  UNL1        0.0096
     45 C          65.5451   96.5965   -3.8056 C.3     1  UNL1        0.0096
@<TRIPOS>BOND
     1    17    18    1
     2    18    19    1
     3    19    20    1
     4    20    21    1
     5    21    16    1
     6    16     6    1
     7     6     7   ar
     8     7     8   ar
     9     8     9   ar
    10     9     2    1
    11     2     3   am
    12     3     4    2
    13     3     1    1
    14     1    24    1
    15    24    26    1
    16    26    27   ar
    17    27    28   ar
    18    28    29   ar
    19    29    33    1
    20    33    34   ar
    21    34    35   ar
    22    35    36   ar
    23    36    39    1
    24    39    40   am
    25    40    41    2
    26    40    43    1
    27    43    44    1
    28    44    45    1
    29    36    37   ar
    30    37    38   ar
    31    29    30   ar
    32    30    31   ar
    33    31    32    1
    34     9    10   ar
    35    10    11   ar
    36    11    12    1
    37    12    13    1
    38    12    14    1
    39    12    15    1
    40    21    22    1
    41    22    23    1
    42    23    18    1
    43    11     6   ar
    44    31    26   ar
    45    38    33   ar
    46    45    43    1
    47     2     5    1
    48    24    25    1
    49    39    42    1
@<TRIPOS>MOLECULE
*****
 45 49 0 0 0
SMALL
GASTEIGER

@<TRIPOS>ATOM
      1 C          59.0147   88.7646    6.8537 C.3     1  UNL1        0.1740
      2 N          60.0157   86.8040    8.2334 N.am    1  UNL1       -0.2825
      3 C          59.9011   88.2744    7.9600 C.2     1  UNL1        0.2461
      4 O          60.6729   89.2545    8.7928 O.2     1  UNL1       -0.2729
      5 H          59.5091   86.1607    7.6868 H       1  UNL1        0.1549
      6 C          62.6749   85.3332   11.5524 C.ar    1  UNL1       -0.0022
      7 C          61.7387   86.4801   11.7938 C.ar    1  UNL1       -0.0017
      8 C          60.8523   86.9703   10.6875 C.ar    1  UNL1        0.0144
      9 C          60.9021   86.3137    9.3398 C.ar    1  UNL1        0.0503
     10 C          61.8383   85.1669    9.0984 C.ar    1  UNL1        0.0182
     11 C          62.7247   84.6766   10.2047 C.ar    1  UNL1        0.0700
     12 C          63.6608   83.5297    9.9633 C.3     1  UNL1        0.4184
     13 F          64.5970   82.3829    9.7219 F       1  UNL1       -0.1659
     14 F          62.8820   82.6900   10.9319 F       1  UNL1       -0.1659
     15 F          64.4397   84.3694    8.9947 F       1  UNL1       -0.1659
     16 C          63.5612   84.8429   12.6588 C.3     1  UNL1        0.0992
     17 C          62.7295   86.8118   18.2651 C.3     1  UNL1        0.0897
     18 N          62.9374   86.3196   16.8636 N.3     1  UNL1       -0.2691
     19 C          62.2229   85.0900   16.3867 C.3     1  UNL1        0.0897
     20 C          62.4309   84.5977   14.9851 C.3     1  UNL1        0.0899
     21 N          63.3533   85.3352   14.0604 N.3     1  UNL1       -0.2665
     22 C          64.0678   86.5648   14.5372 C.3     1  UNL1        0.0899
     23 C          63.8599   87.0570   15.9388 C.3     1  UNL1        0.0897
     24 N          58.8206   90.2373    6.6448 N.pl3   1  UNL1       -0.3235
     25 H          58.2419   90.7490    7.2553 H       1  UNL1        0.1473
     26 C          59.5081   90.9303    5.5060 C.ar    1  UNL1        0.0728
     27 C          60.9561   90.6570    5.2261 C.ar    1  UNL1        0.0166
     28 C          61.6437   91.3501    4.0872 C.ar    1  UNL1        0.0015
     29 C          60.8832   92.3164    3.2283 C.ar    1  UNL1        0.0038
     30 C          59.4351   92.5898    3.5083 C.ar    1  UNL1        0.0310
     31 C          58.7475   91.8967    4.6471 C.ar    1  UNL1        0.1531
     32 F          57.2995   92.1701    4.9271 F       1  UNL1       -0.2029
     33 C          61.5707   93.0095    2.0895 C.ar    1  UNL1        0.0193
     34 C          63.0648   92.9526    1.9690 C.ar    1  UNL1        0.0044
     35 C          63.7523   93.6456    0.8301 C.ar    1  UNL1        0.0345
     36 C          62.9458   94.3956   -0.1882 C.ar    1  UNL1        0.1342
     37 N          61.4517   94.4525   -0.0678 N.ar    1  UNL1       -0.2290
     38 C          60.7641   93.7594    1.0711 C.ar    1  UNL1        0.1003
     39 N          63.6333   95.0886   -1.3271 N.am    1  UNL1       -0.2694
     40 C          63.8559   94.3640   -2.6215 C.2     1  UNL1        0.2267
     41 O          63.3910   92.9464   -2.7770 O.2     1  UNL1       -0.2748
     42 H          63.9384   96.0191   -1.2250 H       1  UNL1        0.1563
     43 C          64.5434   95.0571   -3.7603 C.3     1  UNL1        0.0769
     44 C          64.9503   95.0933   -5.2036 C.3     1  UNL1        0.0096
     45 C          65.3273   96.2213   -4.2896 C.3     1  UNL1        0.0096
@<TRIPOS>BOND
     1    17    18    1
     2    18    19    1
     3    19    20    1
     4    20    21    1
     5    21    16    1
     6    16     6    1
     7     6     7   ar
     8     7     8   ar
     9     8     9   ar
    10     9     2    1
    11     2     3   am
    12     3     4    2
    13     3     1    1
    14     1    24    1
    15    24    26    1
    16    26    27   ar
    17    27    28   ar
    18    28    29   ar
    19    29    33    1
    20    33    34   ar
    21    34    35   ar
    22    35    36   ar
    23    36    39    1
    24    39    40   am
    25    40    41    2
    26    40    43    1
    27    43    44    1
    28    44    45    1
    29    36    37   ar
    30    37    38   ar
    31    29    30   ar
    32    30    31   ar
    33    31    32    1
    34     9    10   ar
    35    10    11   ar
    36    11    12    1
    37    12    13    1
    38    12    14    1
    39    12    15    1
    40    21    22    1
    41    22    23    1
    42    23    18    1
    43    11     6   ar
    44    31    26   ar
    45    38    33   ar
    46    45    43    1
    47     2     5    1
    48    24    25    1
    49    39    42    1
@<TRIPOS>MOLECULE
*****
 45 49 0 0 0
SMALL
GASTEIGER

@<TRIPOS>ATOM
      1 C          58.4350   88.6954    7.2864 C.3     1  UNL1        0.1740
      2 N          60.0829   90.1207    5.8712 N.am    1  UNL1       -0.2825
      3 C          58.6792   89.7392    6.2372 C.2     1  UNL1        0.2461
      4 O          57.5196   90.4015    5.5541 O.2     1  UNL1       -0.2729
      5 H          60.8439   89.6859    6.3195 H       1  UNL1        0.1549
      6 C          60.8154   93.2522    2.7236 C.ar    1  UNL1       -0.0022
      7 C          59.5329   93.2564    3.5016 C.ar    1  UNL1       -0.0017
      8 C          59.2888   92.2126    4.5508 C.ar    1  UNL1        0.0144
      9 C          60.3271   91.1645    4.8219 C.ar    1  UNL1        0.0503
     10 C          61.6095   91.1603    4.0439 C.ar    1  UNL1        0.0182
     11 C          61.8537   92.2041    2.9947 C.ar    1  UNL1        0.0700
     12 C          63.1361   92.1999    2.2167 C.3     1  UNL1        0.4184
     13 F          64.4185   92.1956    1.4387 F       1  UNL1       -0.1659
     14 F          63.7841   93.0357    3.2803 F       1  UNL1       -0.1659
     15 F          62.4880   91.3640    1.1531 F       1  UNL1       -0.1659
     16 C          61.0595   94.2960    1.6744 C.3     1  UNL1        0.0992
     17 C          58.7295   93.6346   -3.8150 C.3     1  UNL1        0.0897
     18 N          59.3120   93.8000   -2.4427 N.3     1  UNL1       -0.2691
     19 C          58.4208   94.1429   -1.2859 C.3     1  UNL1        0.0897
     20 C          59.0033   94.3083    0.0864 C.3     1  UNL1        0.0899
     21 N          60.4770   94.1307    0.3020 N.3     1  UNL1       -0.2665
     22 C          61.3683   93.7877   -0.8547 C.3     1  UNL1        0.0899
     23 C          60.7858   93.6223   -2.2270 C.3     1  UNL1        0.0897
     24 N          59.5777   87.8769    7.8102 N.pl3   1  UNL1       -0.3235
     25 H          59.7105   86.9553    7.4903 H       1  UNL1        0.1473
     26 C          60.5181   88.4624    8.8216 C.ar    1  UNL1        0.0728
     27 C          60.2067   89.7846    9.4578 C.ar    1  UNL1        0.0166
     28 C          61.1471   90.3703   10.4692 C.ar    1  UNL1        0.0015
     29 C          62.3987   89.6336   10.8443 C.ar    1  UNL1        0.0038
     30 C          62.7100   88.3113   10.2081 C.ar    1  UNL1        0.0310
     31 C          61.7697   87.7258    9.1967 C.ar    1  UNL1        0.1531
     32 F          62.0810   86.4036    8.5605 F       1  UNL1       -0.2029
     33 C          63.3391   90.2192   11.8557 C.ar    1  UNL1        0.0193
     34 C          63.6550   89.4631   13.1121 C.ar    1  UNL1        0.0044
     35 C          64.5953   90.0486   14.1235 C.ar    1  UNL1        0.0345
     36 C          65.2198   91.3903   13.8784 C.ar    1  UNL1        0.1342
     37 N          64.9040   92.1463   12.6220 N.ar    1  UNL1       -0.2290
     38 C          63.9636   91.5608   11.6106 C.ar    1  UNL1        0.1003
     39 N          66.1601   91.9758   14.8898 N.am    1  UNL1       -0.2694
     40 C          67.5714   92.3030   14.5006 C.2     1  UNL1        0.2267
     41 O          68.0422   92.0445   13.1000 O.2     1  UNL1       -0.2748
     42 H          65.8511   92.1454   15.8090 H       1  UNL1        0.1563
     43 C          68.5117   92.8885   15.5119 C.3     1  UNL1        0.0769
     44 C          69.0589   94.0806   16.2396 C.3     1  UNL1        0.0096
     45 C          69.5933   92.7107   16.5360 C.3     1  UNL1        0.0096
@<TRIPOS>BOND
     1    17    18    1
     2    18    19    1
     3    19    20    1
     4    20    21    1
     5    21    16    1
     6    16     6    1
     7     6     7   ar
     8     7     8   ar
     9     8     9   ar
    10     9     2    1
    11     2     3   am
    12     3     4    2
    13     3     1    1
    14     1    24    1
    15    24    26    1
    16    26    27   ar
    17    27    28   ar
    18    28    29   ar
    19    29    33    1
    20    33    34   ar
    21    34    35   ar
    22    35    36   ar
    23    36    39    1
    24    39    40   am
    25    40    41    2
    26    40    43    1
    27    43    44    1
    28    44    45    1
    29    36    37   ar
    30    37    38   ar
    31    29    30   ar
    32    30    31   ar
    33    31    32    1
    34     9    10   ar
    35    10    11   ar
    36    11    12    1
    37    12    13    1
    38    12    14    1
    39    12    15    1
    40    21    22    1
    41    22    23    1
    42    23    18    1
    43    11     6   ar
    44    31    26   ar
    45    38    33   ar
    46    45    43    1
    47     2     5    1
    48    24    25    1
    49    39    42    1
@<TRIPOS>MOLECULE
*****
 45 49 0 0 0
SMALL
GASTEIGER

@<TRIPOS>ATOM
      1 C          61.3027   86.9235   11.2322 C.3     1  UNL1        0.1740
      2 N          62.4500   88.9003   12.4674 N.am    1  UNL1       -0.2825
      3 C          62.2825   88.0593   11.2367 C.2     1  UNL1        0.2461
      4 O          63.0948   88.3539   10.0106 O.2     1  UNL1       -0.2729
      5 H          61.9169   88.7069   13.2721 H       1  UNL1        0.1549
      6 C          65.3895   92.3076   12.4811 C.ar    1  UNL1       -0.0022
      7 C          64.4972   92.0916   11.2948 C.ar    1  UNL1       -0.0017
      8 C          63.5174   90.9558   11.2903 C.ar    1  UNL1        0.0144
      9 C          63.4299   90.0361   12.4720 C.ar    1  UNL1        0.0503
     10 C          64.3221   90.2521   13.6582 C.ar    1  UNL1        0.0182
     11 C          65.3020   91.3878   13.6628 C.ar    1  UNL1        0.0700
     12 C          66.1943   91.6038   14.8490 C.3     1  UNL1        0.4184
     13 F          67.0865   91.8198   16.0352 F       1  UNL1       -0.1659
     14 F          65.1134   92.4010   15.5169 F       1  UNL1       -0.1659
     15 F          67.2751   90.8066   14.1811 F       1  UNL1       -0.1659
     16 C          66.3693   93.4434   12.4856 C.3     1  UNL1        0.0992
     17 C          67.0303   96.8548    7.5943 C.3     1  UNL1        0.0897
     18 N          66.8651   96.0019    8.8171 N.3     1  UNL1       -0.2691
     19 C          66.0940   96.5205    9.9946 C.3     1  UNL1        0.0897
     20 C          65.9287   95.6677   11.2174 C.3     1  UNL1        0.0899
     21 N          66.5346   94.2962   11.2628 N.3     1  UNL1       -0.2665
     22 C          67.3056   93.7776   10.0853 C.3     1  UNL1        0.0899
     23 C          67.4709   94.6305    8.8625 C.3     1  UNL1        0.0897
     24 N          60.0057   87.0549   10.4901 N.pl3   1  UNL1       -0.3235
     25 H          59.2152   86.5487   10.7870 H       1  UNL1        0.1473
     26 C          59.9131   87.9574    9.2956 C.ar    1  UNL1        0.0728
     27 C          60.1653   89.4284    9.4458 C.ar    1  UNL1        0.0166
     28 C          60.0727   90.3310    8.2513 C.ar    1  UNL1        0.0015
     29 C          59.7279   89.7626    6.9067 C.ar    1  UNL1        0.0038
     30 C          59.4757   88.2915    6.7565 C.ar    1  UNL1        0.0310
     31 C          59.5683   87.3890    7.9510 C.ar    1  UNL1        0.1531
     32 F          59.3161   85.9180    7.8009 F       1  UNL1       -0.2029
     33 C          59.6353   90.6651    5.7122 C.ar    1  UNL1        0.0193
     34 C          60.8813   91.0797    4.9870 C.ar    1  UNL1        0.0044
     35 C          60.7887   91.9823    3.7926 C.ar    1  UNL1        0.0345
     36 C          59.4502   92.4702    3.3232 C.ar    1  UNL1        0.1342
     37 N          58.2043   92.0556    4.0483 N.ar    1  UNL1       -0.2290
     38 C          58.2968   91.1531    5.2428 C.ar    1  UNL1        0.1003
     39 N          59.3576   93.3728    2.1287 N.am    1  UNL1       -0.2694
     40 C          60.0669   93.0100    0.8577 C.2     1  UNL1        0.2267
     41 O          60.8688   91.7446    0.7813 O.2     1  UNL1       -0.2748
     42 H          58.8313   94.2033    2.1789 H       1  UNL1        0.1563
     43 C          59.9743   93.9125   -0.3367 C.3     1  UNL1        0.0769
     44 C          60.6351   94.6370   -1.4718 C.3     1  UNL1        0.0096
     45 C          59.1530   94.7513   -1.2706 C.3     1  UNL1        0.0096
@<TRIPOS>BOND
     1    17    18    1
     2    18    19    1
     3    19    20    1
     4    20    21    1
     5    21    16    1
     6    16     6    1
     7     6     7   ar
     8     7     8   ar
     9     8     9   ar
    10     9     2    1
    11     2     3   am
    12     3     4    2
    13     3     1    1
    14     1    24    1
    15    24    26    1
    16    26    27   ar
    17    27    28   ar
    18    28    29   ar
    19    29    33    1
    20    33    34   ar
    21    34    35   ar
    22    35    36   ar
    23    36    39    1
    24    39    40   am
    25    40    41    2
    26    40    43    1
    27    43    44    1
    28    44    45    1
    29    36    37   ar
    30    37    38   ar
    31    29    30   ar
    32    30    31   ar
    33    31    32    1
    34     9    10   ar
    35    10    11   ar
    36    11    12    1
    37    12    13    1
    38    12    14    1
    39    12    15    1
    40    21    22    1
    41    22    23    1
    42    23    18    1
    43    11     6   ar
    44    31    26   ar
    45    38    33   ar
    46    45    43    1
    47     2     5    1
    48    24    25    1
    49    39    42    1
@<TRIPOS>MOLECULE
*****
 45 49 0 0 0
SMALL
GASTEIGER

@<TRIPOS>ATOM
      1 C          59.0054   89.2403    6.4733 C.3     1  UNL1        0.1740
      2 N          60.6444   89.3817    8.4840 N.am    1  UNL1       -0.2825
      3 C          59.6982   88.5880    7.6328 C.2     1  UNL1        0.2461
      4 O          59.4447   87.1421    7.9411 O.2     1  UNL1       -0.2729
      5 H          60.8108   90.3307    8.2817 H       1  UNL1        0.1549
      6 C          62.7229   87.4249   11.9628 C.ar    1  UNL1       -0.0022
      7 C          62.2496   86.5933   10.8075 C.ar    1  UNL1       -0.0017
      8 C          61.5568   87.2456    9.6480 C.ar    1  UNL1        0.0144
      9 C          61.3373   88.7294    9.6437 C.ar    1  UNL1        0.0503
     10 C          61.8105   89.5610   10.7988 C.ar    1  UNL1        0.0182
     11 C          62.5034   88.9087   11.9584 C.ar    1  UNL1        0.0700
     12 C          62.9766   89.7403   13.1136 C.3     1  UNL1        0.4184
     13 F          63.4498   90.5718   14.2688 F       1  UNL1       -0.1659
     14 F          64.3810   89.6655   12.5921 F       1  UNL1       -0.1659
     15 F          61.5722   89.8150   13.6352 F       1  UNL1       -0.1659
     16 C          63.4157   86.7726   13.1223 C.3     1  UNL1        0.0992
     17 C          62.8568   80.8656   14.0143 C.3     1  UNL1        0.0897
     18 N          62.9966   82.3424   13.7913 N.3     1  UNL1       -0.2691
     19 C          63.6346   82.8539   12.5338 C.3     1  UNL1        0.0897
     20 C          63.7743   84.3307   12.3108 C.3     1  UNL1        0.0899
     21 N          63.2760   85.2958   13.3453 N.3     1  UNL1       -0.2665
     22 C          62.6380   84.7843   14.6027 C.3     1  UNL1        0.0899
     23 C          62.4983   83.3075   14.8257 C.3     1  UNL1        0.0897
     24 N          59.0829   90.7275    6.2933 N.pl3   1  UNL1       -0.3235
     25 H          58.6867   91.3261    6.9670 H       1  UNL1        0.1473
     26 C          59.7641   91.3025    5.0870 C.ar    1  UNL1        0.0728
     27 C          61.2220   91.0395    4.8524 C.ar    1  UNL1        0.0166
     28 C          61.9033   91.6145    3.6460 C.ar    1  UNL1        0.0015
     29 C          61.1265   92.4525    2.6743 C.ar    1  UNL1        0.0038
     30 C          59.6684   92.7155    2.9089 C.ar    1  UNL1        0.0310
     31 C          58.9873   92.1405    4.1153 C.ar    1  UNL1        0.1531
     32 F          57.5293   92.4036    4.3499 F       1  UNL1       -0.2029
     33 C          61.8077   93.0275    1.4679 C.ar    1  UNL1        0.0193
     34 C          60.9916   93.6098    0.3521 C.ar    1  UNL1        0.0044
     35 C          61.6727   94.1848   -0.8543 C.ar    1  UNL1        0.0345
     36 C          63.1700   94.1776   -0.9449 C.ar    1  UNL1        0.1342
     37 N          63.9861   93.5954    0.1709 N.ar    1  UNL1       -0.2290
     38 C          63.3049   93.0203    1.3773 C.ar    1  UNL1        0.1003
     39 N          63.8512   94.7526   -2.1512 N.am    1  UNL1       -0.2694
     40 C          64.0142   93.9203   -3.3885 C.2     1  UNL1        0.2267
     41 O          63.4960   92.5130   -3.4193 O.2     1  UNL1       -0.2748
     42 H          64.1913   95.6763   -2.1310 H       1  UNL1        0.1563
     43 C          64.6954   94.4953   -4.5948 C.3     1  UNL1        0.0769
     44 C          65.0918   95.6837   -5.4198 C.3     1  UNL1        0.0096
     45 C          65.4789   94.3028   -5.8594 C.3     1  UNL1        0.0096
@<TRIPOS>BOND
     1    17    18    1
     2    18    19    1
     3    19    20    1
     4    20    21    1
     5    21    16    1
     6    16     6    1
     7     6     7   ar
     8     7     8   ar
     9     8     9   ar
    10     9     2    1
    11     2     3   am
    12     3     4    2
    13     3     1    1
    14     1    24    1
    15    24    26    1
    16    26    27   ar
    17    27    28   ar
    18    28    29   ar
    19    29    33    1
    20    33    34   ar
    21    34    35   ar
    22    35    36   ar
    23    36    39    1
    24    39    40   am
    25    40    41    2
    26    40    43    1
    27    43    44    1
    28    44    45    1
    29    36    37   ar
    30    37    38   ar
    31    29    30   ar
    32    30    31   ar
    33    31    32    1
    34     9    10   ar
    35    10    11   ar
    36    11    12    1
    37    12    13    1
    38    12    14    1
    39    12    15    1
    40    21    22    1
    41    22    23    1
    42    23    18    1
    43    11     6   ar
    44    31    26   ar
    45    38    33   ar
    46    45    43    1
    47     2     5    1
    48    24    25    1
    49    39    42    1
@<TRIPOS>MOLECULE
*****
 45 49 0 0 0
SMALL
GASTEIGER

@<TRIPOS>ATOM
      1 C          65.0393   83.2336   13.7443 C.3     1  UNL1        0.1740
      2 N          63.8483   85.5425   13.7312 N.am    1  UNL1       -0.2825
      3 C          65.0615   84.7083   14.0177 C.2     1  UNL1        0.2461
      4 O          66.2969   85.3488   14.5777 O.2     1  UNL1       -0.2729
      5 H          63.0374   85.1222   13.3636 H       1  UNL1        0.1549
      6 C          63.9147   89.9667   14.5514 C.ar    1  UNL1       -0.0022
      7 C          64.2347   88.9955   15.6490 C.ar    1  UNL1       -0.0017
      8 C          64.2125   87.5208   15.3755 C.ar    1  UNL1        0.0144
      9 C          63.8704   87.0173   14.0046 C.ar    1  UNL1        0.0503
     10 C          63.5505   87.9884   12.9071 C.ar    1  UNL1        0.0182
     11 C          63.5727   89.4632   13.1805 C.ar    1  UNL1        0.0700
     12 C          63.2527   90.4343   12.0830 C.3     1  UNL1        0.4184
     13 F          62.9328   91.4054   10.9856 F       1  UNL1       -0.1659
     14 F          64.7069   90.7840   11.9686 F       1  UNL1       -0.1659
     15 F          61.7986   90.0846   12.1975 F       1  UNL1       -0.1659
     16 C          63.9369   91.4414   14.8249 C.3     1  UNL1        0.0992
     17 C          69.1636   94.2480   15.7222 C.3     1  UNL1        0.0897
     18 N          67.8569   93.5463   15.4979 N.3     1  UNL1       -0.2691
     19 C          67.2928   93.4365   14.1124 C.3     1  UNL1        0.0897
     20 C          65.9861   92.7348   13.8881 C.3     1  UNL1        0.0899
     21 N          65.2436   92.1430   15.0492 N.3     1  UNL1       -0.2665
     22 C          65.8077   92.2528   16.4347 C.3     1  UNL1        0.0899
     23 C          67.1144   92.9545   16.6590 C.3     1  UNL1        0.0897
     24 N          64.3171   82.7048   12.5406 N.pl3   1  UNL1       -0.3235
     25 H          64.3836   81.7509   12.3064 H       1  UNL1        0.1473
     26 C          63.4939   83.6294   11.6936 C.ar    1  UNL1        0.0728
     27 C          62.3880   84.4302   12.3146 C.ar    1  UNL1        0.0166
     28 C          61.5646   85.3548   11.4677 C.ar    1  UNL1        0.0015
     29 C          61.8473   85.4786    9.9998 C.ar    1  UNL1        0.0038
     30 C          62.9532   84.6777    9.3788 C.ar    1  UNL1        0.0310
     31 C          63.7765   83.7532   10.2257 C.ar    1  UNL1        0.1531
     32 F          64.8824   82.9524    9.6047 F       1  UNL1       -0.2029
     33 C          61.0240   86.4032    9.1528 C.ar    1  UNL1        0.0193
     34 C          60.8930   87.8490    9.5303 C.ar    1  UNL1        0.0044
     35 C          60.0697   88.7736    8.6833 C.ar    1  UNL1        0.0345
     36 C          59.3774   88.2524    7.4590 C.ar    1  UNL1        0.1342
     37 N          59.5084   86.8066    7.0815 N.ar    1  UNL1       -0.2290
     38 C          60.3317   85.8820    7.9285 C.ar    1  UNL1        0.1003
     39 N          58.5542   89.1770    6.6120 N.am    1  UNL1       -0.2694
     40 C          59.2215   90.2603    5.8176 C.2     1  UNL1        0.2267
     41 O          60.7122   90.4190    5.8701 O.2     1  UNL1       -0.2748
     42 H          57.5758   89.0728    6.5776 H       1  UNL1        0.1563
     43 C          58.3983   91.1849    4.9706 C.3     1  UNL1        0.0769
     44 C          57.0748   91.8053    4.6338 C.3     1  UNL1        0.0096
     45 C          58.2958   92.1659    3.8405 C.3     1  UNL1        0.0096
@<TRIPOS>BOND
     1    17    18    1
     2    18    19    1
     3    19    20    1
     4    20    21    1
     5    21    16    1
     6    16     6    1
     7     6     7   ar
     8     7     8   ar
     9     8     9   ar
    10     9     2    1
    11     2     3   am
    12     3     4    2
    13     3     1    1
    14     1    24    1
    15    24    26    1
    16    26    27   ar
    17    27    28   ar
    18    28    29   ar
    19    29    33    1
    20    33    34   ar
    21    34    35   ar
    22    35    36   ar
    23    36    39    1
    24    39    40   am
    25    40    41    2
    26    40    43    1
    27    43    44    1
    28    44    45    1
    29    36    37   ar
    30    37    38   ar
    31    29    30   ar
    32    30    31   ar
    33    31    32    1
    34     9    10   ar
    35    10    11   ar
    36    11    12    1
    37    12    13    1
    38    12    14    1
    39    12    15    1
    40    21    22    1
    41    22    23    1
    42    23    18    1
    43    11     6   ar
    44    31    26   ar
    45    38    33   ar
    46    45    43    1
    47     2     5    1
    48    24    25    1
    49    39    42    1
@<TRIPOS>MOLECULE
*****
 45 49 0 0 0
SMALL
GASTEIGER

@<TRIPOS>ATOM
      1 C          59.7525   93.6387    2.8681 C.3     1  UNL1        0.1740
      2 N          60.4332   92.9347    0.4617 N.am    1  UNL1       -0.2825
      3 C          60.0080   93.9951    1.4337 C.2     1  UNL1        0.2461
      4 O          59.8384   95.4119    0.9712 O.2     1  UNL1       -0.2729
      5 H          60.5445   92.0048    0.7653 H       1  UNL1        0.1549
      6 C          61.1999   94.0038   -3.8417 C.ar    1  UNL1       -0.0022
      7 C          62.3379   93.5849   -2.9587 C.ar    1  UNL1       -0.0017
      8 C          62.0823   93.2286   -1.5243 C.ar    1  UNL1        0.0144
      9 C          60.6888   93.2911   -0.9728 C.ar    1  UNL1        0.0503
     10 C          59.5508   93.7099   -1.8557 C.ar    1  UNL1        0.0182
     11 C          59.8064   94.0663   -3.2902 C.ar    1  UNL1        0.0700
     12 C          58.6684   94.4851   -4.1732 C.3     1  UNL1        0.4184
     13 F          57.5305   94.9040   -5.0561 F       1  UNL1       -0.1659
     14 F          58.3921   93.0473   -4.4991 F       1  UNL1       -0.1659
     15 F          58.9447   95.9229   -3.8472 F       1  UNL1       -0.1659
     16 C          61.4555   94.3602   -5.2762 C.3     1  UNL1        0.0992
     17 C          67.0861   94.7745   -7.3071 C.3     1  UNL1        0.0897
     18 N          65.6784   94.6709   -6.7994 N.3     1  UNL1       -0.2691
     19 C          65.0434   95.8395   -6.1059 C.3     1  UNL1        0.0897
     20 C          63.6357   95.7359   -5.5982 C.3     1  UNL1        0.0899
     21 N          62.8631   94.4637   -5.7839 N.3     1  UNL1       -0.2665
     22 C          63.4982   93.2951   -6.4774 C.3     1  UNL1        0.0899
     23 C          64.9058   93.3987   -6.9851 C.3     1  UNL1        0.0897
     24 N          58.8349   92.5012    3.2063 N.pl3   1  UNL1       -0.3235
     25 H          58.0283   92.3418    2.6649 H       1  UNL1        0.1473
     26 C          59.1464   91.6067    4.3694 C.ar    1  UNL1        0.0728
     27 C          60.5723   91.2933    4.7137 C.ar    1  UNL1        0.0166
     28 C          60.8838   90.3988    5.8769 C.ar    1  UNL1        0.0015
     29 C          59.7694   89.8177    6.6957 C.ar    1  UNL1        0.0038
     30 C          58.3434   90.1312    6.3513 C.ar    1  UNL1        0.0310
     31 C          58.0320   91.0256    5.1882 C.ar    1  UNL1        0.1531
     32 F          56.6061   91.3390    4.8439 F       1  UNL1       -0.2029
     33 C          60.0808   88.9233    7.8588 C.ar    1  UNL1        0.0193
     34 C          59.8096   87.4508    7.7663 C.ar    1  UNL1        0.0044
     35 C          60.1211   86.5564    8.9294 C.ar    1  UNL1        0.0345
     36 C          60.7038   87.1342   10.1850 C.ar    1  UNL1        0.1342
     37 N          60.9750   88.6066   10.2775 N.ar    1  UNL1       -0.2290
     38 C          60.6635   89.5011    9.1144 C.ar    1  UNL1        0.1003
     39 N          61.0152   86.2397   11.3481 N.am    1  UNL1       -0.2694
     40 C          62.1318   85.2429   11.2498 C.2     1  UNL1        0.2267
     41 O          62.9369   85.1406    9.9883 O.2     1  UNL1       -0.2748
     42 H          60.4868   86.3069   12.1761 H       1  UNL1        0.1563
     43 C          62.4433   84.3484   12.4129 C.3     1  UNL1        0.0769
     44 C          62.6855   84.1643   13.8817 C.3     1  UNL1        0.0096
     45 C          62.7405   82.9832   12.9587 C.3     1  UNL1        0.0096
@<TRIPOS>BOND
     1    17    18    1
     2    18    19    1
     3    19    20    1
     4    20    21    1
     5    21    16    1
     6    16     6    1
     7     6     7   ar
     8     7     8   ar
     9     8     9   ar
    10     9     2    1
    11     2     3   am
    12     3     4    2
    13     3     1    1
    14     1    24    1
    15    24    26    1
    16    26    27   ar
    17    27    28   ar
    18    28    29   ar
    19    29    33    1
    20    33    34   ar
    21    34    35   ar
    22    35    36   ar
    23    36    39    1
    24    39    40   am
    25    40    41    2
    26    40    43    1
    27    43    44    1
    28    44    45    1
    29    36    37   ar
    30    37    38   ar
    31    29    30   ar
    32    30    31   ar
    33    31    32    1
    34     9    10   ar
    35    10    11   ar
    36    11    12    1
    37    12    13    1
    38    12    14    1
    39    12    15    1
    40    21    22    1
    41    22    23    1
    42    23    18    1
    43    11     6   ar
    44    31    26   ar
    45    38    33   ar
    46    45    43    1
    47     2     5    1
    48    24    25    1
    49    39    42    1
@<TRIPOS>MOLECULE
*****
 45 49 0 0 0
SMALL
GASTEIGER

@<TRIPOS>ATOM
      1 C          59.2869   88.7456    7.0406 C.3     1  UNL1        0.1740
      2 N          60.7826   89.8597    8.8493 N.am    1  UNL1       -0.2825
      3 C          60.1258   88.6376    8.2794 C.2     1  UNL1        0.2461
      4 O          60.3078   87.3074    8.9483 O.2     1  UNL1       -0.2729
      5 H          60.6631   90.7328    8.4102 H       1  UNL1        0.1549
      6 C          63.2992   89.5359   12.5658 C.ar    1  UNL1       -0.0022
      7 C          62.9625   90.8850   12.0031 C.ar    1  UNL1       -0.0017
      8 C          62.1237   90.9930   10.7643 C.ar    1  UNL1        0.0144
      9 C          61.6215   89.7518   10.0881 C.ar    1  UNL1        0.0503
     10 C          61.9581   88.4027   10.6507 C.ar    1  UNL1        0.0182
     11 C          62.7970   88.2947   11.8896 C.ar    1  UNL1        0.0700
     12 C          63.1336   86.9456   12.4522 C.3     1  UNL1        0.4184
     13 F          63.4702   85.5965   13.0148 F       1  UNL1       -0.1659
     14 F          62.2437   86.2985   11.4328 F       1  UNL1       -0.1659
     15 F          64.0235   87.5928   13.4716 F       1  UNL1       -0.1659
     16 C          64.1380   89.4280   13.8046 C.3     1  UNL1        0.0992
     17 C          67.6851   93.9852   15.4322 C.3     1  UNL1        0.0897
     18 N          66.7983   92.8459   15.0253 N.3     1  UNL1       -0.2691
     19 C          66.9887   92.1867   13.6915 C.3     1  UNL1        0.0897
     20 C          66.1019   91.0474   13.2846 C.3     1  UNL1        0.0899
     21 N          65.0248   90.5673   14.2115 N.3     1  UNL1       -0.2665
     22 C          64.8345   91.2265   15.5453 C.3     1  UNL1        0.0899
     23 C          65.7212   92.3658   15.9523 C.3     1  UNL1        0.0897
     24 N          58.7369   90.0765    6.6209 N.pl3   1  UNL1       -0.3235
     25 H          57.9523   90.4524    7.0818 H       1  UNL1        0.1473
     26 C          59.3823   90.8348    5.4991 C.ar    1  UNL1        0.0728
     27 C          60.8406   90.6423    5.2052 C.ar    1  UNL1        0.0166
     28 C          61.4861   91.4006    4.0834 C.ar    1  UNL1        0.0015
     29 C          60.6732   92.3514    3.2555 C.ar    1  UNL1        0.0038
     30 C          59.2149   92.5438    3.5495 C.ar    1  UNL1        0.0310
     31 C          58.5695   91.7856    4.6713 C.ar    1  UNL1        0.1531
     32 F          57.1113   91.9781    4.9652 F       1  UNL1       -0.2029
     33 C          61.3186   93.1096    2.1337 C.ar    1  UNL1        0.0193
     34 C          60.4856   93.6153    0.9933 C.ar    1  UNL1        0.0044
     35 C          61.1310   94.3735   -0.1285 C.ar    1  UNL1        0.0345
     36 C          62.6094   94.6262   -0.1099 C.ar    1  UNL1        0.1342
     37 N          63.4425   94.1206    1.0304 N.ar    1  UNL1       -0.2290
     38 C          62.7971   93.3623    2.1523 C.ar    1  UNL1        0.1003
     39 N          63.2548   95.3844   -1.2317 N.am    1  UNL1       -0.2694
     40 C          63.6916   94.6620   -2.4716 C.2     1  UNL1        0.2267
     41 O          63.4830   93.1813   -2.5897 O.2     1  UNL1       -0.2748
     42 H          63.3918   96.3563   -1.1542 H       1  UNL1        0.1563
     43 C          64.3371   95.4202   -3.5934 C.3     1  UNL1        0.0769
     44 C          64.2508   96.0610   -4.9469 C.3     1  UNL1        0.0096
     45 C          65.5412   96.0929   -4.1829 C.3     1  UNL1        0.0096
@<TRIPOS>BOND
     1    17    18    1
     2    18    19    1
     3    19    20    1
     4    20    21    1
     5    21    16    1
     6    16     6    1
     7     6     7   ar
     8     7     8   ar
     9     8     9   ar
    10     9     2    1
    11     2     3   am
    12     3     4    2
    13     3     1    1
    14     1    24    1
    15    24    26    1
    16    26    27   ar
    17    27    28   ar
    18    28    29   ar
    19    29    33    1
    20    33    34   ar
    21    34    35   ar
    22    35    36   ar
    23    36    39    1
    24    39    40   am
    25    40    41    2
    26    40    43    1
    27    43    44    1
    28    44    45    1
    29    36    37   ar
    30    37    38   ar
    31    29    30   ar
    32    30    31   ar
    33    31    32    1
    34     9    10   ar
    35    10    11   ar
    36    11    12    1
    37    12    13    1
    38    12    14    1
    39    12    15    1
    40    21    22    1
    41    22    23    1
    42    23    18    1
    43    11     6   ar
    44    31    26   ar
    45    38    33   ar
    46    45    43    1
    47     2     5    1
    48    24    25    1
    49    39    42    1
