@<TRIPOS>MOLECULE
*****
 46 50 0 0 0
SMALL
GASTEIGER

@<TRIPOS>ATOM
      1 C          59.2301   88.4308    7.5777 C.2     1  UNL1        0.2492
      2 O          58.6277   87.0837    7.3087 O.2     1  UNL1       -0.2699
      3 N          59.9279   88.6940    8.8792 N.am    1  UNL1       -0.2735
      4 C          60.6196   92.7478    3.0844 C.ar    1  UNL1        0.2924
      5 N          59.1583   92.7239    3.4221 N.ar    1  UNL1       -0.1946
      6 C          58.9440   91.6824    4.4801 C.ar    1  UNL1        0.1202
      7 C          57.7105   91.2184    5.1965 C.ar    1  UNL1        0.0225
      8 C          57.8059   90.1345    6.2290 C.ar    1  UNL1        0.0063
      9 C          59.1348   89.5147    6.5451 C.ar    1  UNL1        0.0567
     10 C          60.3682   89.9787    5.8288 C.ar    1  UNL1        0.0437
     11 C          60.2729   91.0626    4.7963 C.ar    1  UNL1        0.1662
     12 O          61.3084   91.7210    3.9337 O.2     1  UNL1       -0.4237
     13 N          61.2767   93.6415    2.0747 N.pl3   1  UNL1       -0.2619
     14 C          60.8965   95.0903    1.9955 C.3     1  UNL1        0.1166
     15 C          63.7688   93.1934    1.4930 C.3     1  UNL1        0.0233
     16 C          62.3139   93.0863    1.1441 C.3     1  UNL1        0.0952
     17 C          60.0232   87.6101    9.9117 C.3     1  UNL1        0.0937
     18 C          61.1278   86.5980    9.8368 C.3     1  UNL1        0.0199
     19 C          61.5272   85.8316   11.0629 C.3     1  UNL1        0.0017
     20 C          62.6317   84.8195   10.9880 C.3     1  UNL1        0.0001
     21 C          63.3368   84.5738    9.6870 C.3     1  UNL1        0.0000
     22 C          62.9374   85.3402    8.4610 C.3     1  UNL1        0.0001
     23 C          61.8329   86.3523    8.5359 C.3     1  UNL1        0.0017
     24 C          60.5303   90.0411    9.1481 C.3     1  UNL1        0.1245
     25 C          61.0855   90.3570   10.5054 C.3     1  UNL1        0.1484
     26 O          60.1565   90.6514   11.6457 O.3     1  UNL1       -0.3810
     27 H          59.2385   90.5961   11.3375 H       1  UNL1        0.2105
     28 C          62.5695   90.3785   10.7222 C.3     1  UNL1        0.1075
     29 N          63.2612   89.1773   11.2958 N.am    1  UNL1       -0.2695
     30 C          63.1089   88.8480   12.7512 C.2     1  UNL1        0.4020
     31 O          62.2650   89.7197   13.6331 O.2     1  UNL1       -0.2264
     32 H          63.8151   88.6051   10.7169 H       1  UNL1        0.1528
     33 O          63.8006   87.6468   13.3247 O.3     1  UNL1       -0.4291
     34 C          64.3247   87.6828   14.7296 C.3     1  UNL1        0.2447
     35 C          63.6086   86.9375   15.8166 C.ar    1  UNL1        0.0714
     36 C          62.9526   87.5478   17.0197 C.ar    1  UNL1        0.1053
     37 N          62.3613   86.4385   17.8380 N.ar    1  UNL1       -0.2350
     38 C          62.6518   85.1424   17.1408 C.ar    1  UNL1        0.1343
     39 S          63.4227   85.4509   15.8915 S.2     1  UNL1       -0.0652
     40 C          63.3620   91.6011   10.3656 C.3     1  UNL1        0.0485
     41 C          64.5960   91.9486   11.1443 C.ar    1  UNL1       -0.0204
     42 C          64.5873   91.8614   12.6417 C.ar    1  UNL1       -0.0042
     43 C          65.8214   92.2088   13.4204 C.ar    1  UNL1       -0.0003
     44 C          67.0641   92.6435   12.7017 C.ar    1  UNL1       -0.0000
     45 C          67.0728   92.7308   11.2043 C.ar    1  UNL1       -0.0003
     46 C          65.8388   92.3833   10.4256 C.ar    1  UNL1       -0.0042
@<TRIPOS>BOND
     1    15    16    1
     2    16    13    1
     3    13    14    1
     4    13     4    1
     5     4     5   ar
     6     5     6   ar
     7     6     7   ar
     8     7     8   ar
     9     8     9   ar
    10     9     1    1
    11     1     2    2
    12     1     3   am
    13     3    17    1
    14    17    18    1
    15    18    19    1
    16    19    20    1
    17    20    21    1
    18    21    22    1
    19    22    23    1
    20     3    24    1
    21    24    25    1
    22    25    26    1
    23    25    28    1
    24    28    40    1
    25    40    41    1
    26    41    42   ar
    27    42    43   ar
    28    43    44   ar
    29    44    45   ar
    30    45    46   ar
    31    28    29    1
    32    29    30   am
    33    30    31    2
    34    30    33    1
    35    33    34    1
    36    34    35    1
    37    35    36   ar
    38    36    37   ar
    39    37    38   ar
    40    38    39   ar
    41     9    10   ar
    42    10    11   ar
    43    11    12   ar
    44    12     4   ar
    45    11     6   ar
    46    23    18    1
    47    46    41   ar
    48    39    35   ar
    49    26    27    1
    50    29    32    1
@<TRIPOS>MOLECULE
*****
 46 50 0 0 0
SMALL
GASTEIGER

@<TRIPOS>ATOM
      1 C          63.8919   89.0680   13.6712 C.2     1  UNL1        0.2492
      2 O          64.5622   89.9347   14.6957 O.2     1  UNL1       -0.2699
      3 N          63.2042   89.6933   12.4940 N.am    1  UNL1       -0.2735
      4 C          63.1268   82.8037   12.7067 C.ar    1  UNL1        0.2924
      5 N          63.8166   83.1024   14.0048 N.ar    1  UNL1       -0.1946
      6 C          63.9442   84.5917   14.1299 C.ar    1  UNL1        0.1202
      7 C          64.5377   85.4620   15.1977 C.ar    1  UNL1        0.0225
      8 C          64.5203   86.9541   15.0448 C.ar    1  UNL1        0.0063
      9 C          63.9093   87.5758   13.8241 C.ar    1  UNL1        0.0567
     10 C          63.3157   86.7055   12.7563 C.ar    1  UNL1        0.0437
     11 C          63.3332   85.2135   12.9092 C.ar    1  UNL1        0.1662
     12 O          62.8280   84.1084   12.0297 O.2     1  UNL1       -0.4237
     13 N          62.7942   81.4397   12.1785 N.pl3   1  UNL1       -0.2619
     14 C          63.1258   81.0835   10.7597 C.3     1  UNL1        0.1166
     15 C          61.0771   80.8707   14.0434 C.3     1  UNL1        0.0233
     16 C          62.1298   80.4320   13.0691 C.3     1  UNL1        0.0952
     17 C          63.1868   91.1854   12.3411 C.3     1  UNL1        0.0937
     18 C          64.4469   91.9178   11.9866 C.3     1  UNL1        0.0199
     19 C          64.7502   92.2379   10.5528 C.3     1  UNL1        0.0017
     20 C          66.0104   92.9702   10.1982 C.3     1  UNL1        0.0001
     21 C          66.9672   93.3824   11.2775 C.3     1  UNL1        0.0000
     22 C          66.6639   93.0623   12.7111 C.3     1  UNL1        0.0001
     23 C          65.4037   92.3300   13.0657 C.3     1  UNL1        0.0017
     24 C          62.5339   88.8266   11.4695 C.3     1  UNL1        0.1245
     25 C          61.1404   89.1444   11.0143 C.3     1  UNL1        0.1484
     26 O          60.2493   89.9984   11.8667 O.3     1  UNL1       -0.3810
     27 H          60.7246   90.2594   12.6710 H       1  UNL1        0.2105
     28 C          60.6380   88.6081    9.7066 C.3     1  UNL1        0.1075
     29 N          60.4974   89.5221    8.5255 N.am    1  UNL1       -0.2695
     30 C          59.4151   89.2811    7.5153 C.2     1  UNL1        0.4020
     31 O          58.4734   88.1262    7.6861 O.2     1  UNL1       -0.2264
     32 H          61.1155   90.2802    8.4134 H       1  UNL1        0.1528
     33 O          59.2746   90.1951    6.3342 O.3     1  UNL1       -0.4291
     34 C          60.4890   90.6081    5.5567 C.3     1  UNL1        0.2447
     35 C          60.3572   91.5750    4.4176 C.ar    1  UNL1        0.0714
     36 C          59.1211   92.3411    4.0498 C.ar    1  UNL1        0.1053
     37 N          59.4383   93.1852    2.8511 N.ar    1  UNL1       -0.2350
     38 C          60.8705   92.9408    2.4779 C.ar    1  UNL1        0.1343
     39 S          61.4384   91.9456    3.4461 S.2     1  UNL1       -0.0652
     40 C          60.2761   87.1580    9.5800 C.3     1  UNL1        0.0485
     41 C          61.0906   86.2557    8.7011 C.ar    1  UNL1       -0.0204
     42 C          62.5118   85.9399    9.0623 C.ar    1  UNL1       -0.0042
     43 C          63.3263   85.0376    8.1834 C.ar    1  UNL1       -0.0003
     44 C          62.7197   84.4512    6.9433 C.ar    1  UNL1       -0.0000
     45 C          61.2985   84.7670    6.5821 C.ar    1  UNL1       -0.0003
     46 C          60.4840   85.6692    7.4610 C.ar    1  UNL1       -0.0042
@<TRIPOS>BOND
     1    15    16    1
     2    16    13    1
     3    13    14    1
     4    13     4    1
     5     4     5   ar
     6     5     6   ar
     7     6     7   ar
     8     7     8   ar
     9     8     9   ar
    10     9     1    1
    11     1     2    2
    12     1     3   am
    13     3    17    1
    14    17    18    1
    15    18    19    1
    16    19    20    1
    17    20    21    1
    18    21    22    1
    19    22    23    1
    20     3    24    1
    21    24    25    1
    22    25    26    1
    23    25    28    1
    24    28    40    1
    25    40    41    1
    26    41    42   ar
    27    42    43   ar
    28    43    44   ar
    29    44    45   ar
    30    45    46   ar
    31    28    29    1
    32    29    30   am
    33    30    31    2
    34    30    33    1
    35    33    34    1
    36    34    35    1
    37    35    36   ar
    38    36    37   ar
    39    37    38   ar
    40    38    39   ar
    41     9    10   ar
    42    10    11   ar
    43    11    12   ar
    44    12     4   ar
    45    11     6   ar
    46    23    18    1
    47    46    41   ar
    48    39    35   ar
    49    26    27    1
    50    29    32    1
@<TRIPOS>MOLECULE
*****
 46 50 0 0 0
SMALL
GASTEIGER

@<TRIPOS>ATOM
      1 C          59.7156   87.0784    8.0106 C.2     1  UNL1        0.2492
      2 O          58.4972   86.3662    7.5023 O.2     1  UNL1       -0.2699
      3 N          59.8440   88.5626    7.8365 N.am    1  UNL1       -0.2735
      4 C          63.4187   84.2875   12.3987 C.ar    1  UNL1        0.2924
      5 N          63.9222   84.0690   11.0027 N.ar    1  UNL1       -0.1946
      6 C          62.9852   84.7618   10.0582 C.ar    1  UNL1        0.1202
      7 C          62.9780   84.8873    8.5635 C.ar    1  UNL1        0.0225
      8 C          61.8881   85.6595    7.8810 C.ar    1  UNL1        0.0063
      9 C          60.8055   86.3061    8.6932 C.ar    1  UNL1        0.0567
     10 C          60.8127   86.1806   10.1879 C.ar    1  UNL1        0.0437
     11 C          61.9026   85.4084   10.8704 C.ar    1  UNL1        0.1662
     12 O          62.1705   85.1153   12.3169 O.2     1  UNL1       -0.4237
     13 N          64.0521   83.7692   13.6557 N.pl3   1  UNL1       -0.2619
     14 C          65.3261   84.3793   14.1603 C.3     1  UNL1        0.1166
     15 C          62.2770   81.8770   13.7921 C.3     1  UNL1        0.0233
     16 C          63.4115   82.6408   14.4082 C.3     1  UNL1        0.0952
     17 C          58.7541   89.3348    7.1539 C.3     1  UNL1        0.0937
     18 C          59.0929   90.3002    6.0569 C.3     1  UNL1        0.0199
     19 C          58.0125   91.1278    5.4260 C.3     1  UNL1        0.0017
     20 C          58.3513   92.0931    4.3290 C.3     1  UNL1        0.0001
     21 C          59.7704   92.2308    3.8629 C.3     1  UNL1        0.0000
     22 C          60.8507   91.4033    4.4938 C.3     1  UNL1        0.0001
     23 C          60.5119   90.4379    5.5908 C.3     1  UNL1        0.0017
     24 C          61.0624   89.2748    8.3448 C.3     1  UNL1        0.1245
     25 C          61.1138   89.7520    9.7660 C.3     1  UNL1        0.1484
     26 O          59.8444   89.9194   10.5473 O.3     1  UNL1       -0.3810
     27 H          59.0877   89.6784    9.9903 H       1  UNL1        0.2105
     28 C          62.4347   90.0619   10.4058 C.3     1  UNL1        0.1075
     29 N          63.1836   88.9881   11.1380 N.am    1  UNL1       -0.2695
     30 C          62.9442   88.7723   12.6029 C.2     1  UNL1        0.4020
     31 O          61.9558   89.6303   13.3357 O.2     1  UNL1       -0.2264
     32 H          63.8324   88.4250   10.6571 H       1  UNL1        0.1528
     33 O          63.6932   87.6985   13.3351 O.3     1  UNL1       -0.4291
     34 C          64.3222   87.9957   14.6640 C.3     1  UNL1        0.2447
     35 C          63.6630   87.5275   15.9273 C.ar    1  UNL1        0.0714
     36 C          63.1677   88.4029   17.0402 C.ar    1  UNL1        0.1053
     37 N          62.5818   87.5181   18.1004 N.ar    1  UNL1       -0.2350
     38 C          62.7149   86.0958   17.6427 C.ar    1  UNL1        0.1343
     39 S          63.3831   86.1016   16.2997 S.2     1  UNL1       -0.0652
     40 C          63.0066   91.4455   10.3133 C.3     1  UNL1        0.0485
     41 C          64.2573   91.7919   11.0655 C.ar    1  UNL1       -0.0204
     42 C          64.2984   91.6497   12.5582 C.ar    1  UNL1       -0.0042
     43 C          65.5491   91.9961   13.3104 C.ar    1  UNL1       -0.0003
     44 C          66.7586   92.4846   12.5699 C.ar    1  UNL1       -0.0000
     45 C          66.7175   92.6268   11.0773 C.ar    1  UNL1       -0.0003
     46 C          65.4668   92.2804   10.3251 C.ar    1  UNL1       -0.0042
@<TRIPOS>BOND
     1    15    16    1
     2    16    13    1
     3    13    14    1
     4    13     4    1
     5     4     5   ar
     6     5     6   ar
     7     6     7   ar
     8     7     8   ar
     9     8     9   ar
    10     9     1    1
    11     1     2    2
    12     1     3   am
    13     3    17    1
    14    17    18    1
    15    18    19    1
    16    19    20    1
    17    20    21    1
    18    21    22    1
    19    22    23    1
    20     3    24    1
    21    24    25    1
    22    25    26    1
    23    25    28    1
    24    28    40    1
    25    40    41    1
    26    41    42   ar
    27    42    43   ar
    28    43    44   ar
    29    44    45   ar
    30    45    46   ar
    31    28    29    1
    32    29    30   am
    33    30    31    2
    34    30    33    1
    35    33    34    1
    36    34    35    1
    37    35    36   ar
    38    36    37   ar
    39    37    38   ar
    40    38    39   ar
    41     9    10   ar
    42    10    11   ar
    43    11    12   ar
    44    12     4   ar
    45    11     6   ar
    46    23    18    1
    47    46    41   ar
    48    39    35   ar
    49    26    27    1
    50    29    32    1
@<TRIPOS>MOLECULE
*****
 46 50 0 0 0
SMALL
GASTEIGER

@<TRIPOS>ATOM
      1 C          61.8566   88.9971   10.4099 C.2     1  UNL1        0.2492
      2 O          60.8792   89.4024    9.3467 O.2     1  UNL1       -0.2699
      3 N          61.8848   87.5804   10.9020 N.am    1  UNL1       -0.2735
      4 C          65.7590   93.9936   11.1604 C.ar    1  UNL1        0.2924
      5 N          65.6375   93.1703   12.4084 N.ar    1  UNL1       -0.1946
      6 C          64.7043   92.0311   12.1232 C.ar    1  UNL1        0.1202
      7 C          64.2104   90.9006   12.9764 C.ar    1  UNL1        0.0225
      8 C          63.2612   89.8893   12.4053 C.ar    1  UNL1        0.0063
      9 C          62.8059   90.0084   10.9810 C.ar    1  UNL1        0.0567
     10 C          63.2999   91.1389   10.1278 C.ar    1  UNL1        0.0437
     11 C          64.2491   92.1502   10.6989 C.ar    1  UNL1        0.1662
     12 O          64.9009   93.3632   10.1039 O.2     1  UNL1       -0.4237
     13 N          66.5922   95.2302   10.9976 N.pl3   1  UNL1       -0.2619
     14 C          66.4273   96.3766   11.9507 C.3     1  UNL1        0.1166
     15 C          67.9866   94.0854    9.1281 C.3     1  UNL1        0.0233
     16 C          67.5904   95.3204    9.8816 C.3     1  UNL1        0.0952
     17 C          60.9355   86.5690   10.3310 C.3     1  UNL1        0.0937
     18 C          61.2184   85.9445    8.9968 C.3     1  UNL1        0.0199
     19 C          62.5851   85.4043    8.6962 C.3     1  UNL1        0.0017
     20 C          62.8679   84.7798    7.3620 C.3     1  UNL1        0.0001
     21 C          61.7841   84.6956    6.3284 C.3     1  UNL1        0.0000
     22 C          60.4174   85.2359    6.6290 C.3     1  UNL1        0.0001
     23 C          60.1346   85.8604    7.9632 C.3     1  UNL1        0.0017
     24 C          62.8622   87.1750   11.9652 C.3     1  UNL1        0.1245
     25 C          62.9210   85.7485   12.4254 C.3     1  UNL1        0.1484
     26 O          61.9644   84.7391   11.8633 O.3     1  UNL1       -0.3810
     27 H          61.3801   85.1704   11.2204 H       1  UNL1        0.2105
     28 C          63.9365   85.3315   13.4476 C.3     1  UNL1        0.1075
     29 N          64.2598   83.8786   13.6343 N.am    1  UNL1       -0.2695
     30 C          63.2835   82.9764   14.3291 C.2     1  UNL1        0.4020
     31 O          61.9839   83.5268   14.8371 O.2     1  UNL1       -0.2264
     32 H          65.1127   83.5173   13.3009 H       1  UNL1        0.1528
     33 O          63.6068   81.5235   14.5158 O.3     1  UNL1       -0.4291
     34 C          62.7839   80.4772   13.8244 C.3     1  UNL1        0.2447
     35 C          62.8614   80.3259   12.3341 C.ar    1  UNL1        0.0714
     36 C          62.6478   79.0562   11.5645 C.ar    1  UNL1        0.1053
     37 N          62.8205   79.3632   10.1064 N.ar    1  UNL1       -0.2350
     38 C          63.1409   80.8227    9.9749 C.ar    1  UNL1        0.1343
     39 S          63.1662   81.4177   11.3517 S.2     1  UNL1       -0.0652
     40 C          64.6287   86.3673   14.2831 C.3     1  UNL1        0.0485
     41 C          63.9723   86.8888   15.5269 C.ar    1  UNL1       -0.0204
     42 C          63.7613   88.3635   15.7017 C.ar    1  UNL1       -0.0042
     43 C          63.1049   88.8850   16.9456 C.ar    1  UNL1       -0.0003
     44 C          62.6595   87.9318   18.0146 C.ar    1  UNL1       -0.0000
     45 C          62.8704   86.4571   17.8398 C.ar    1  UNL1       -0.0003
     46 C          63.5268   85.9356   16.5960 C.ar    1  UNL1       -0.0042
@<TRIPOS>BOND
     1    15    16    1
     2    16    13    1
     3    13    14    1
     4    13     4    1
     5     4     5   ar
     6     5     6   ar
     7     6     7   ar
     8     7     8   ar
     9     8     9   ar
    10     9     1    1
    11     1     2    2
    12     1     3   am
    13     3    17    1
    14    17    18    1
    15    18    19    1
    16    19    20    1
    17    20    21    1
    18    21    22    1
    19    22    23    1
    20     3    24    1
    21    24    25    1
    22    25    26    1
    23    25    28    1
    24    28    40    1
    25    40    41    1
    26    41    42   ar
    27    42    43   ar
    28    43    44   ar
    29    44    45   ar
    30    45    46   ar
    31    28    29    1
    32    29    30   am
    33    30    31    2
    34    30    33    1
    35    33    34    1
    36    34    35    1
    37    35    36   ar
    38    36    37   ar
    39    37    38   ar
    40    38    39   ar
    41     9    10   ar
    42    10    11   ar
    43    11    12   ar
    44    12     4   ar
    45    11     6   ar
    46    23    18    1
    47    46    41   ar
    48    39    35   ar
    49    26    27    1
    50    29    32    1
@<TRIPOS>MOLECULE
*****
 46 50 0 0 0
SMALL
GASTEIGER

@<TRIPOS>ATOM
      1 C          61.9320   89.0981   10.4415 C.2     1  UNL1        0.2492
      2 O          60.9289   89.5513    9.4226 O.2     1  UNL1       -0.2699
      3 N          61.9463   87.6686   10.8957 N.am    1  UNL1       -0.2735
      4 C          66.0470   92.1236   14.2718 C.ar    1  UNL1        0.2924
      5 N          65.8793   92.8160   12.9518 N.ar    1  UNL1       -0.1946
      6 C          64.8986   92.0271   12.1358 C.ar    1  UNL1        0.1202
      7 C          64.3482   92.2308   10.7554 C.ar    1  UNL1        0.0225
      8 C          63.3593   91.2545   10.1907 C.ar    1  UNL1        0.0063
      9 C          62.9209   90.0745   11.0063 C.ar    1  UNL1        0.0567
     10 C          63.4713   89.8708   12.3867 C.ar    1  UNL1        0.0437
     11 C          64.4602   90.8471   12.9514 C.ar    1  UNL1        0.1662
     12 O          65.1699   90.9067   14.2716 O.2     1  UNL1       -0.4237
     13 N          66.9357   92.5696   15.3948 N.pl3   1  UNL1       -0.2619
     14 C          66.3879   92.6782   16.7870 C.3     1  UNL1        0.1166
     15 C          69.0446   93.9991   15.9039 C.3     1  UNL1        0.0233
     16 C          68.3722   92.9071   15.1257 C.3     1  UNL1        0.0952
     17 C          60.9574   86.6923   10.3309 C.3     1  UNL1        0.0937
     18 C          61.2250   86.0328    9.0105 C.3     1  UNL1        0.0199
     19 C          60.1267   85.9127    7.9959 C.3     1  UNL1        0.0017
     20 C          60.3943   85.2532    6.6755 C.3     1  UNL1        0.0001
     21 C          61.7602   84.7139    6.3697 C.3     1  UNL1        0.0000
     22 C          62.8585   84.8340    7.3842 C.3     1  UNL1        0.0001
     23 C          62.5909   85.4935    8.7047 C.3     1  UNL1        0.0017
     24 C          62.9495   87.2154   11.9146 C.3     1  UNL1        0.1245
     25 C          62.9313   85.7983   12.4063 C.3     1  UNL1        0.1484
     26 O          61.9309   84.8260   11.8552 O.3     1  UNL1       -0.3810
     27 H          61.3758   85.2718   11.1964 H       1  UNL1        0.2105
     28 C          63.9137   85.3536   13.4490 C.3     1  UNL1        0.1075
     29 N          64.1989   83.8928   13.6362 N.am    1  UNL1       -0.2695
     30 C          63.2050   83.0192   14.3425 C.2     1  UNL1        0.4020
     31 O          61.9260   83.6061   14.8616 O.2     1  UNL1       -0.2264
     32 H          65.0384   83.5076   13.2955 H       1  UNL1        0.1528
     33 O          63.4902   81.5584   14.5297 O.3     1  UNL1       -0.4291
     34 C          62.6840   80.5355   13.7857 C.3     1  UNL1        0.2447
     35 C          62.8207   80.4106   12.2972 C.ar    1  UNL1        0.0714
     36 C          62.6410   79.1542   11.4976 C.ar    1  UNL1        0.1053
     37 N          62.8704   79.4873   10.0532 N.ar    1  UNL1       -0.2350
     38 C          63.1919   80.9495    9.9600 C.ar    1  UNL1        0.1343
     39 S          63.1612   81.5201   11.3469 S.2     1  UNL1       -0.0652
     40 C          64.6109   86.3695   14.3044 C.3     1  UNL1        0.0485
     41 C          63.9561   86.8713   15.5572 C.ar    1  UNL1       -0.0204
     42 C          63.7286   88.3417   15.7473 C.ar    1  UNL1       -0.0042
     43 C          63.0738   88.8436   17.0001 C.ar    1  UNL1       -0.0003
     44 C          62.6465   87.8750   18.0627 C.ar    1  UNL1       -0.0000
     45 C          62.8740   86.4046   17.8726 C.ar    1  UNL1       -0.0003
     46 C          63.5288   85.9028   16.6198 C.ar    1  UNL1       -0.0042
@<TRIPOS>BOND
     1    15    16    1
     2    16    13    1
     3    13    14    1
     4    13     4    1
     5     4     5   ar
     6     5     6   ar
     7     6     7   ar
     8     7     8   ar
     9     8     9   ar
    10     9     1    1
    11     1     2    2
    12     1     3   am
    13     3    17    1
    14    17    18    1
    15    18    19    1
    16    19    20    1
    17    20    21    1
    18    21    22    1
    19    22    23    1
    20     3    24    1
    21    24    25    1
    22    25    26    1
    23    25    28    1
    24    28    40    1
    25    40    41    1
    26    41    42   ar
    27    42    43   ar
    28    43    44   ar
    29    44    45   ar
    30    45    46   ar
    31    28    29    1
    32    29    30   am
    33    30    31    2
    34    30    33    1
    35    33    34    1
    36    34    35    1
    37    35    36   ar
    38    36    37   ar
    39    37    38   ar
    40    38    39   ar
    41     9    10   ar
    42    10    11   ar
    43    11    12   ar
    44    12     4   ar
    45    11     6   ar
    46    23    18    1
    47    46    41   ar
    48    39    35   ar
    49    26    27    1
    50    29    32    1
@<TRIPOS>MOLECULE
*****
 46 50 0 0 0
SMALL
GASTEIGER

@<TRIPOS>ATOM
      1 C          63.9536   88.9932   15.2206 C.2     1  UNL1        0.2492
      2 O          64.2146   89.6865   16.5250 O.2     1  UNL1       -0.2699
      3 N          63.9654   89.7747   13.9404 N.am    1  UNL1       -0.2735
      4 C          63.2279   82.9289   13.3619 C.ar    1  UNL1        0.2924
      5 N          62.9355   83.1188   14.8208 N.ar    1  UNL1       -0.1946
      6 C          63.1352   84.5688   15.1487 C.ar    1  UNL1        0.1202
      7 C          62.9921   85.3373   16.4289 C.ar    1  UNL1        0.0225
      8 C          63.2649   86.8120   16.4529 C.ar    1  UNL1        0.0063
      9 C          63.6808   87.5183   15.1966 C.ar    1  UNL1        0.0567
     10 C          63.8239   86.7499   13.9164 C.ar    1  UNL1        0.0437
     11 C          63.5511   85.2751   13.8925 C.ar    1  UNL1        0.1662
     12 O          63.6084   84.2616   12.7882 O.2     1  UNL1       -0.4237
     13 N          63.1530   81.6338   12.6089 N.pl3   1  UNL1       -0.2619
     14 C          62.8762   80.3548   13.3421 C.3     1  UNL1        0.1166
     15 C          64.2656   82.6204   10.4785 C.3     1  UNL1        0.0233
     16 C          63.3550   81.6175   11.1227 C.3     1  UNL1        0.0952
     17 C          64.2382   91.2495   13.9644 C.3     1  UNL1        0.0937
     18 C          65.5913   91.7554   14.3682 C.3     1  UNL1        0.0199
     19 C          65.7888   92.3703   15.7221 C.3     1  UNL1        0.0017
     20 C          67.1419   92.8763   16.1259 C.3     1  UNL1        0.0001
     21 C          68.2976   92.7673   15.1758 C.3     1  UNL1        0.0000
     22 C          68.1001   92.1524   13.8220 C.3     1  UNL1        0.0001
     23 C          66.7469   91.6465   13.4182 C.3     1  UNL1        0.0017
     24 C          63.7043   89.0814   12.6361 C.3     1  UNL1        0.1245
     25 C          62.3256   89.0894   12.0452 C.3     1  UNL1        0.1484
     26 O          61.2031   89.7713   12.7698 O.3     1  UNL1       -0.3810
     27 H          61.5366   90.1526   13.5970 H       1  UNL1        0.2105
     28 C          62.0694   88.4157   10.7298 C.3     1  UNL1        0.1075
     29 N          61.4883   89.1960    9.5880 N.am    1  UNL1       -0.2695
     30 C          60.0095   89.4379    9.5207 C.2     1  UNL1        0.4020
     31 O          59.1117   88.8996   10.5950 O.2     1  UNL1       -0.2264
     32 H          62.0775   89.5493    8.8829 H       1  UNL1        0.1528
     33 O          59.4284   90.2182    8.3789 O.3     1  UNL1       -0.4291
     34 C          59.5552   89.7021    6.9763 C.3     1  UNL1        0.2447
     35 C          59.2989   90.6160    5.8148 C.ar    1  UNL1        0.0714
     36 C          57.9562   91.1002    5.3534 C.ar    1  UNL1        0.1053
     37 N          58.1677   91.9896    4.1642 N.ar    1  UNL1       -0.2350
     38 C          59.6412   92.0553    3.8907 C.ar    1  UNL1        0.1343
     39 S          60.3402   91.2063    4.9109 S.2     1  UNL1       -0.0652
     40 C          62.3943   86.9616   10.5560 C.3     1  UNL1        0.0485
     41 C          62.0632   86.2678    9.2680 C.ar    1  UNL1       -0.0204
     42 C          63.1363   85.5477    8.5066 C.ar    1  UNL1       -0.0042
     43 C          62.8051   84.8539    7.2186 C.ar    1  UNL1       -0.0003
     44 C          61.4009   84.8802    6.6920 C.ar    1  UNL1       -0.0000
     45 C          60.3278   85.6003    7.4534 C.ar    1  UNL1       -0.0003
     46 C          60.6589   86.2941    8.7414 C.ar    1  UNL1       -0.0042
@<TRIPOS>BOND
     1    15    16    1
     2    16    13    1
     3    13    14    1
     4    13     4    1
     5     4     5   ar
     6     5     6   ar
     7     6     7   ar
     8     7     8   ar
     9     8     9   ar
    10     9     1    1
    11     1     2    2
    12     1     3   am
    13     3    17    1
    14    17    18    1
    15    18    19    1
    16    19    20    1
    17    20    21    1
    18    21    22    1
    19    22    23    1
    20     3    24    1
    21    24    25    1
    22    25    26    1
    23    25    28    1
    24    28    40    1
    25    40    41    1
    26    41    42   ar
    27    42    43   ar
    28    43    44   ar
    29    44    45   ar
    30    45    46   ar
    31    28    29    1
    32    29    30   am
    33    30    31    2
    34    30    33    1
    35    33    34    1
    36    34    35    1
    37    35    36   ar
    38    36    37   ar
    39    37    38   ar
    40    38    39   ar
    41     9    10   ar
    42    10    11   ar
    43    11    12   ar
    44    12     4   ar
    45    11     6   ar
    46    23    18    1
    47    46    41   ar
    48    39    35   ar
    49    26    27    1
    50    29    32    1
@<TRIPOS>MOLECULE
*****
 46 50 0 0 0
SMALL
GASTEIGER

@<TRIPOS>ATOM
      1 C          63.6232   88.6833   13.4775 C.2     1  UNL1        0.2492
      2 O          63.7667   87.8566   14.7208 O.2     1  UNL1       -0.2699
      3 N          62.7578   88.2005   12.3515 N.am    1  UNL1       -0.2735
      4 C          65.9492   94.2219   11.3163 C.ar    1  UNL1        0.2924
      5 N          66.3880   93.9261   12.7199 N.ar    1  UNL1       -0.1946
      6 C          65.7893   92.6119   13.1255 C.ar    1  UNL1        0.1202
      7 C          65.8761   91.8188   14.3957 C.ar    1  UNL1        0.0225
      8 C          65.1541   90.5093   14.5130 C.ar    1  UNL1        0.0063
      9 C          64.3452   89.9929   13.3601 C.ar    1  UNL1        0.0567
     10 C          64.2584   90.7860   12.0899 C.ar    1  UNL1        0.0437
     11 C          64.9804   92.0955   11.9726 C.ar    1  UNL1        0.1662
     12 O          65.0793   93.0905   10.8545 O.2     1  UNL1       -0.4237
     13 N          66.3160   95.4359   10.5152 N.pl3   1  UNL1       -0.2619
     14 C          65.7582   96.7773   10.8885 C.3     1  UNL1        0.1166
     15 C          67.9332   94.0059    9.0697 C.3     1  UNL1        0.0233
     16 C          67.2404   95.3084    9.3409 C.3     1  UNL1        0.0952
     17 C          62.0357   86.8909   12.4688 C.3     1  UNL1        0.0937
     18 C          62.8046   85.6038   12.4228 C.3     1  UNL1        0.0199
     19 C          62.5660   84.6270   11.3097 C.3     1  UNL1        0.0017
     20 C          63.3349   83.3399   11.2636 C.3     1  UNL1        0.0001
     21 C          64.3425   83.0296   12.3307 C.3     1  UNL1        0.0000
     22 C          64.5811   84.0063   13.4438 C.3     1  UNL1        0.0001
     23 C          63.8122   85.2934   13.4898 C.3     1  UNL1        0.0017
     24 C          62.6143   89.0272   11.1081 C.3     1  UNL1        0.1245
     25 C          61.2506   89.4176   10.6203 C.3     1  UNL1        0.1484
     26 O          60.4283   90.4009   11.3995 O.3     1  UNL1       -0.3810
     27 H          60.9217   90.6841   12.1852 H       1  UNL1        0.2105
     28 C          60.7091   88.8248    9.3533 C.3     1  UNL1        0.1075
     29 N          60.5781   89.6743    8.1239 N.am    1  UNL1       -0.2695
     30 C          59.4604   89.4245    7.1553 C.2     1  UNL1        0.4020
     31 O          58.4737   88.3252    7.4159 O.2     1  UNL1       -0.2264
     32 H          61.2257   90.3958    7.9528 H       1  UNL1        0.1528
     33 O          59.3293   90.2740    5.9259 O.3     1  UNL1       -0.4291
     34 C          60.5547   90.8378    5.2698 C.3     1  UNL1        0.2447
     35 C          60.4190   91.7612    4.0956 C.ar    1  UNL1        0.0714
     36 C          59.1649   92.4633    3.6662 C.ar    1  UNL1        0.1053
     37 N          59.4844   93.2807    2.4498 N.ar    1  UNL1       -0.2350
     38 C          60.9361   93.0839    2.1272 C.ar    1  UNL1        0.1343
     39 S          61.5137   92.1448    3.1444 S.2     1  UNL1       -0.0652
     40 C          60.2988   87.3826    9.3155 C.3     1  UNL1        0.0485
     41 C          61.0711   86.4046    8.4806 C.ar    1  UNL1       -0.0204
     42 C          60.3803   85.6382    7.3919 C.ar    1  UNL1       -0.0042
     43 C          61.1526   84.6603    6.5569 C.ar    1  UNL1       -0.0003
     44 C          62.6157   84.4487    6.8107 C.ar    1  UNL1       -0.0000
     45 C          63.3065   85.2151    7.8995 C.ar    1  UNL1       -0.0003
     46 C          62.5342   86.1931    8.7344 C.ar    1  UNL1       -0.0042
@<TRIPOS>BOND
     1    15    16    1
     2    16    13    1
     3    13    14    1
     4    13     4    1
     5     4     5   ar
     6     5     6   ar
     7     6     7   ar
     8     7     8   ar
     9     8     9   ar
    10     9     1    1
    11     1     2    2
    12     1     3   am
    13     3    17    1
    14    17    18    1
    15    18    19    1
    16    19    20    1
    17    20    21    1
    18    21    22    1
    19    22    23    1
    20     3    24    1
    21    24    25    1
    22    25    26    1
    23    25    28    1
    24    28    40    1
    25    40    41    1
    26    41    42   ar
    27    42    43   ar
    28    43    44   ar
    29    44    45   ar
    30    45    46   ar
    31    28    29    1
    32    29    30   am
    33    30    31    2
    34    30    33    1
    35    33    34    1
    36    34    35    1
    37    35    36   ar
    38    36    37   ar
    39    37    38   ar
    40    38    39   ar
    41     9    10   ar
    42    10    11   ar
    43    11    12   ar
    44    12     4   ar
    45    11     6   ar
    46    23    18    1
    47    46    41   ar
    48    39    35   ar
    49    26    27    1
    50    29    32    1
@<TRIPOS>MOLECULE
*****
 46 50 0 0 0
SMALL
GASTEIGER

@<TRIPOS>ATOM
      1 C          63.3033   86.3400   15.5891 C.2     1  UNL1        0.2492
      2 O          63.0320   85.5738   16.8498 O.2     1  UNL1       -0.2699
      3 N          63.2535   85.6425   14.2621 N.am    1  UNL1       -0.2735
      4 C          66.0235   92.0564   14.7647 C.ar    1  UNL1        0.2924
      5 N          64.8243   92.1181   15.6636 N.ar    1  UNL1       -0.1946
      6 C          64.2665   90.7312   15.7881 C.ar    1  UNL1        0.1202
      7 C          63.0909   90.1863   16.5437 C.ar    1  UNL1        0.0225
      8 C          62.7699   88.7226   16.4774 C.ar    1  UNL1        0.0063
      9 C          63.6244   87.8038   15.6554 C.ar    1  UNL1        0.0567
     10 C          64.8000   88.3487   14.8998 C.ar    1  UNL1        0.0437
     11 C          65.1210   89.8124   14.9661 C.ar    1  UNL1        0.1662
     12 O          66.2069   90.6315   14.3336 O.2     1  UNL1       -0.4237
     13 N          66.8876   93.2162   14.3667 N.pl3   1  UNL1       -0.2619
     14 C          66.3313   94.3008   13.4926 C.3     1  UNL1        0.1166
     15 C          68.7315   92.5282   16.0628 C.3     1  UNL1        0.0233
     16 C          68.3080   93.2912   14.8428 C.3     1  UNL1        0.0952
     17 C          62.9323   84.1787   14.1958 C.3     1  UNL1        0.0937
     18 C          63.2220   83.4033   12.9448 C.3     1  UNL1        0.0199
     19 C          62.4519   82.1519   12.6429 C.3     1  UNL1        0.0017
     20 C          62.7415   81.3765   11.3919 C.3     1  UNL1        0.0001
     21 C          63.8013   81.8524   10.4430 C.3     1  UNL1        0.0000
     22 C          64.5713   83.1037   10.7450 C.3     1  UNL1        0.0001
     23 C          64.2817   83.8791   11.9959 C.3     1  UNL1        0.0017
     24 C          63.5248   86.4086   13.0014 C.3     1  UNL1        0.1245
     25 C          62.3835   86.8738   12.1461 C.3     1  UNL1        0.1484
     26 O          61.1390   86.0433   12.0397 O.3     1  UNL1       -0.3810
     27 H          61.2360   85.2445   12.5813 H       1  UNL1        0.2105
     28 C          62.4870   88.1695   11.3974 C.3     1  UNL1        0.1075
     29 N          63.4074   89.2476   11.8878 N.am    1  UNL1       -0.2695
     30 C          63.5370   90.5297   11.1200 C.2     1  UNL1        0.4020
     31 O          62.7461   90.7336    9.8618 O.2     1  UNL1       -0.2264
     32 H          63.9265   89.1138   12.7135 H       1  UNL1        0.1528
     33 O          64.4574   91.6079   11.6103 O.3     1  UNL1       -0.4291
     34 C          64.7719   92.7823   10.7319 C.3     1  UNL1        0.2447
     35 C          66.1889   93.0539   10.3217 C.ar    1  UNL1        0.0714
     36 C          67.3681   92.1639   10.5816 C.ar    1  UNL1        0.1053
     37 N          68.5835   92.8230   10.0001 N.ar    1  UNL1       -0.2350
     38 C          68.1556   94.1205    9.3807 C.ar    1  UNL1        0.1343
     39 S          66.6756   94.2631    9.5795 S.2     1  UNL1       -0.0652
     40 C          61.6700   88.3870   10.1584 C.3     1  UNL1        0.0485
     41 C          61.5184   87.2812    9.1563 C.ar    1  UNL1       -0.0204
     42 C          60.2110   87.0854    8.4475 C.ar    1  UNL1       -0.0042
     43 C          60.0593   85.9796    7.4454 C.ar    1  UNL1       -0.0003
     44 C          61.2151   85.0696    7.1521 C.ar    1  UNL1       -0.0000
     45 C          62.5225   85.2654    7.8608 C.ar    1  UNL1       -0.0003
     46 C          62.6741   86.3712    8.8629 C.ar    1  UNL1       -0.0042
@<TRIPOS>BOND
     1    15    16    1
     2    16    13    1
     3    13    14    1
     4    13     4    1
     5     4     5   ar
     6     5     6   ar
     7     6     7   ar
     8     7     8   ar
     9     8     9   ar
    10     9     1    1
    11     1     2    2
    12     1     3   am
    13     3    17    1
    14    17    18    1
    15    18    19    1
    16    19    20    1
    17    20    21    1
    18    21    22    1
    19    22    23    1
    20     3    24    1
    21    24    25    1
    22    25    26    1
    23    25    28    1
    24    28    40    1
    25    40    41    1
    26    41    42   ar
    27    42    43   ar
    28    43    44   ar
    29    44    45   ar
    30    45    46   ar
    31    28    29    1
    32    29    30   am
    33    30    31    2
    34    30    33    1
    35    33    34    1
    36    34    35    1
    37    35    36   ar
    38    36    37   ar
    39    37    38   ar
    40    38    39   ar
    41     9    10   ar
    42    10    11   ar
    43    11    12   ar
    44    12     4   ar
    45    11     6   ar
    46    23    18    1
    47    46    41   ar
    48    39    35   ar
    49    26    27    1
    50    29    32    1
@<TRIPOS>MOLECULE
*****
 46 50 0 0 0
SMALL
GASTEIGER

@<TRIPOS>ATOM
      1 C          64.1882   89.9232   14.9887 C.2     1  UNL1        0.2492
      2 O          64.6615   90.8308   16.0851 O.2     1  UNL1       -0.2699
      3 N          64.0249   90.4528   13.5948 N.am    1  UNL1       -0.2735
      4 C          63.5416   83.5854   14.5755 C.ar    1  UNL1        0.2924
      5 N          63.0621   84.1246   15.8905 N.ar    1  UNL1       -0.1946
      6 C          63.2582   85.6117   15.8810 C.ar    1  UNL1        0.1202
      7 C          62.9674   86.6690   16.9044 C.ar    1  UNL1        0.0225
      8 C          63.2774   88.1062   16.6070 C.ar    1  UNL1        0.0063
      9 C          63.8782   88.4860   15.2861 C.ar    1  UNL1        0.0567
     10 C          64.1690   87.4287   14.2626 C.ar    1  UNL1        0.0437
     11 C          63.8590   85.9916   14.5601 C.ar    1  UNL1        0.1662
     12 O          64.0342   84.7392   13.7533 O.2     1  UNL1       -0.4237
     13 N          63.5306   82.1452   14.1563 N.pl3   1  UNL1       -0.2619
     14 C          64.5911   81.6249   13.2319 C.3     1  UNL1        0.1166
     15 C          61.1765   81.0767   13.8978 C.3     1  UNL1        0.0233
     16 C          62.4590   81.2252   14.6616 C.3     1  UNL1        0.0952
     17 C          64.3348   91.8900   13.2974 C.3     1  UNL1        0.0937
     18 C          65.4274   92.2369   12.3300 C.3     1  UNL1        0.0199
     19 C          66.8570   91.9430   12.6762 C.3     1  UNL1        0.0017
     20 C          67.9496   92.2899   11.7088 C.3     1  UNL1        0.0001
     21 C          67.6126   92.9307   10.3951 C.3     1  UNL1        0.0000
     22 C          66.1830   93.2246   10.0489 C.3     1  UNL1        0.0001
     23 C          65.0904   92.8777   11.0163 C.3     1  UNL1        0.0017
     24 C          63.5516   89.5452   12.4983 C.3     1  UNL1        0.1245
     25 C          62.0822   89.3521   12.2664 C.3     1  UNL1        0.1484
     26 O          61.0891   89.9119   13.2412 O.3     1  UNL1       -0.3810
     27 H          61.5599   90.3656   13.9578 H       1  UNL1        0.2105
     28 C          61.6060   88.5991   11.0597 C.3     1  UNL1        0.1075
     29 N          61.5345   89.2851    9.7276 N.am    1  UNL1       -0.2695
     30 C          60.3776   89.0223    8.8097 C.2     1  UNL1        0.4020
     31 O          59.2921   88.0736    9.2239 O.2     1  UNL1       -0.2264
     32 H          62.2470   89.9078    9.4557 H       1  UNL1        0.1528
     33 O          60.3062   89.7083    7.4776 O.3     1  UNL1       -0.4291
     34 C          59.1766   89.4063    6.5381 C.3     1  UNL1        0.2447
     35 C          58.6189   90.4895    5.6632 C.ar    1  UNL1        0.0714
     36 C          59.4170   91.5017    4.8959 C.ar    1  UNL1        0.1053
     37 N          58.4566   92.3885    4.1603 N.ar    1  UNL1       -0.2350
     38 C          57.0647   91.9245    4.4730 C.ar    1  UNL1        0.1343
     39 S          57.1651   90.7509    5.4018 S.2     1  UNL1       -0.0652
     40 C          61.2012   87.1602   11.1849 C.3     1  UNL1        0.0485
     41 C          62.0080   86.0924   10.5076 C.ar    1  UNL1       -0.0204
     42 C          62.3800   86.2372    9.0617 C.ar    1  UNL1       -0.0042
     43 C          63.1868   85.1694    8.3843 C.ar    1  UNL1       -0.0003
     44 C          63.6216   83.9568    9.1528 C.ar    1  UNL1       -0.0000
     45 C          63.2496   83.8121   10.5987 C.ar    1  UNL1       -0.0003
     46 C          62.4428   84.8799   11.2761 C.ar    1  UNL1       -0.0042
@<TRIPOS>BOND
     1    15    16    1
     2    16    13    1
     3    13    14    1
     4    13     4    1
     5     4     5   ar
     6     5     6   ar
     7     6     7   ar
     8     7     8   ar
     9     8     9   ar
    10     9     1    1
    11     1     2    2
    12     1     3   am
    13     3    17    1
    14    17    18    1
    15    18    19    1
    16    19    20    1
    17    20    21    1
    18    21    22    1
    19    22    23    1
    20     3    24    1
    21    24    25    1
    22    25    26    1
    23    25    28    1
    24    28    40    1
    25    40    41    1
    26    41    42   ar
    27    42    43   ar
    28    43    44   ar
    29    44    45   ar
    30    45    46   ar
    31    28    29    1
    32    29    30   am
    33    30    31    2
    34    30    33    1
    35    33    34    1
    36    34    35    1
    37    35    36   ar
    38    36    37   ar
    39    37    38   ar
    40    38    39   ar
    41     9    10   ar
    42    10    11   ar
    43    11    12   ar
    44    12     4   ar
    45    11     6   ar
    46    23    18    1
    47    46    41   ar
    48    39    35   ar
    49    26    27    1
    50    29    32    1
