@<TRIPOS>MOLECULE
*****
 29 30 0 0 0
SMALL
GASTEIGER

@<TRIPOS>ATOM
      1 C          63.9069   90.8060   12.6677 C.ar    1  UNL1        0.1575
      2 C          63.4648   91.2930   11.3196 C.ar    1  UNL1        0.0399
      3 C          62.7371   90.3681   10.3896 C.ar    1  UNL1        0.0222
      4 C          62.4515   88.9562   10.8075 C.ar    1  UNL1        0.0814
      5 N          62.8936   88.4691   12.1556 N.ar    1  UNL1       -0.2411
      6 C          63.6212   89.3940   13.0857 C.ar    1  UNL1        0.1586
      7 C          61.7238   88.0313    9.8775 C.ar    1  UNL1        0.0205
      8 C          60.2638   88.2392    9.6034 C.ar    1  UNL1        0.0222
      9 C          59.5361   87.3143    8.6733 C.ar    1  UNL1        0.0987
     10 N          60.2684   86.1815    8.0173 N.ar    1  UNL1       -0.2426
     11 C          61.7284   85.9735    8.2914 C.ar    1  UNL1        0.1250
     12 C          62.4561   86.8984    9.2215 C.ar    1  UNL1        0.0218
     13 C          62.4608   84.8407    7.6354 C.3     1  UNL1        0.3581
     14 F          62.1678   84.4848    6.2080 F       1  UNL1       -0.1915
     15 F          63.4861   84.0637    8.4068 F       1  UNL1       -0.1915
     16 C          64.0633   88.9069   14.4338 C.3     1  UNL1        0.3611
     17 F          63.7686   89.7206   15.6590 F       1  UNL1       -0.1914
     18 F          64.8001   87.6061   14.5567 F       1  UNL1       -0.1914
     19 O          64.6345   91.7309   13.5978 O.3     1  UNL1       -0.4727
     20 C          65.7137   92.6290   13.0699 C.3     1  UNL1        0.2193
     21 C          67.1293   92.1383   12.9977 C.3     1  UNL1        0.0798
     22 C          67.2331   92.6449   11.5897 C.3     1  UNL1        0.0193
     23 N          68.5449   91.6475   12.9255 N.3     1  UNL1       -0.3203
     24 H          69.1010   92.2946   12.3665 H       1  UNL1        0.1189
     25 H          68.5628   90.7234   12.4941 H       1  UNL1        0.1189
     26 C          67.0255   91.6316   14.4057 C.3     1  UNL1        0.0179
     27 C          68.2216   93.5611   15.6691 C.3     1  UNL1        0.0000
     28 C          67.0808   92.5939   15.5550 C.3     1  UNL1        0.0014
     29 C          65.9954   92.5889   16.5903 C.3     1  UNL1        0.0000
@<TRIPOS>BOND
     1    27    28    1
     2    28    29    1
     3    28    26    1
     4    26    21    1
     5    21    22    1
     6    21    23    1
     7    21    20    1
     8    20    19    1
     9    19     1    1
    10     1     2   ar
    11     2     3   ar
    12     3     4   ar
    13     4     7    1
    14     7     8   ar
    15     8     9   ar
    16     9    10   ar
    17    10    11   ar
    18    11    13    1
    19    13    14    1
    20    13    15    1
    21    11    12   ar
    22     4     5   ar
    23     5     6   ar
    24     6    16    1
    25    16    17    1
    26    16    18    1
    27     6     1   ar
    28    12     7   ar
    29    23    24    1
    30    23    25    1
@<TRIPOS>MOLECULE
*****
 29 30 0 0 0
SMALL
GASTEIGER

@<TRIPOS>ATOM
      1 C          63.8469   91.0651   12.3058 C.ar    1  UNL1        0.1575
      2 C          63.5119   91.4019   10.8831 C.ar    1  UNL1        0.0399
      3 C          62.7748   90.4113   10.0314 C.ar    1  UNL1        0.0222
      4 C          62.3726   89.0839   10.6025 C.ar    1  UNL1        0.0814
      5 N          62.7076   88.7471   12.0253 N.ar    1  UNL1       -0.2411
      6 C          63.4447   89.7377   12.8770 C.ar    1  UNL1        0.1586
      7 C          61.6354   88.0933    9.7509 C.ar    1  UNL1        0.0205
      8 C          60.1581   88.2409    9.5369 C.ar    1  UNL1        0.0222
      9 C          59.4210   87.2503    8.6853 C.ar    1  UNL1        0.0987
     10 N          60.1611   86.1121    8.0476 N.ar    1  UNL1       -0.2426
     11 C          61.6383   85.9645    8.2616 C.ar    1  UNL1        0.1250
     12 C          62.3755   86.9551    9.1133 C.ar    1  UNL1        0.0218
     13 C          62.3785   84.8262    7.6239 C.3     1  UNL1        0.3581
     14 F          62.0384   84.3994    6.2268 F       1  UNL1       -0.1915
     15 F          63.4588   84.1148    8.3834 F       1  UNL1       -0.1915
     16 C          63.7797   89.4009   14.2998 C.3     1  UNL1        0.3611
     17 F          62.8802   89.8568   15.4102 F       1  UNL1       -0.1914
     18 F          65.0142   88.6081   14.6122 F       1  UNL1       -0.1914
     19 O          64.5841   92.0557   13.1575 O.3     1  UNL1       -0.4727
     20 C          65.6540   92.9154   12.5524 C.3     1  UNL1        0.2193
     21 C          67.0624   92.4074   12.4616 C.3     1  UNL1        0.0798
     22 C          67.2367   92.6276   13.9351 C.3     1  UNL1        0.0193
     23 N          68.4708   91.8994   12.3709 N.3     1  UNL1       -0.3203
     24 H          68.6996   91.3786   13.2175 H       1  UNL1        0.1189
     25 H          69.1109   92.6875   12.2731 H       1  UNL1        0.1189
     26 C          66.8880   92.1872   10.9882 C.3     1  UNL1        0.0179
     27 C          68.6453   92.4606    9.0942 C.3     1  UNL1        0.0000
     28 C          67.6170   93.0581   10.0083 C.3     1  UNL1        0.0014
     29 C          67.3176   94.5265    9.9424 C.3     1  UNL1        0.0000
@<TRIPOS>BOND
     1    27    28    1
     2    28    29    1
     3    28    26    1
     4    26    21    1
     5    21    22    1
     6    21    23    1
     7    21    20    1
     8    20    19    1
     9    19     1    1
    10     1     2   ar
    11     2     3   ar
    12     3     4   ar
    13     4     7    1
    14     7     8   ar
    15     8     9   ar
    16     9    10   ar
    17    10    11   ar
    18    11    13    1
    19    13    14    1
    20    13    15    1
    21    11    12   ar
    22     4     5   ar
    23     5     6   ar
    24     6    16    1
    25    16    17    1
    26    16    18    1
    27     6     1   ar
    28    12     7   ar
    29    23    24    1
    30    23    25    1
@<TRIPOS>MOLECULE
*****
 29 30 0 0 0
SMALL
GASTEIGER

@<TRIPOS>ATOM
      1 C          63.8446   89.4480   13.4715 C.ar    1  UNL1        0.1575
      2 C          64.4000   88.6119   14.5862 C.ar    1  UNL1        0.0399
      3 C          64.2286   87.1219   14.5632 C.ar    1  UNL1        0.0222
      4 C          63.5019   86.4680   13.4256 C.ar    1  UNL1        0.0814
      5 N          62.9466   87.3040   12.3109 N.ar    1  UNL1       -0.2411
      6 C          63.1179   88.7941   12.3339 C.ar    1  UNL1        0.1586
      7 C          63.3306   84.9780   13.4026 C.ar    1  UNL1        0.0205
      8 C          62.9362   84.2490   14.6528 C.ar    1  UNL1        0.0222
      9 C          62.7648   82.7590   14.6298 C.ar    1  UNL1        0.0987
     10 N          62.9879   81.9980   13.3567 N.ar    1  UNL1       -0.2426
     11 C          63.3822   82.7269   12.1065 C.ar    1  UNL1        0.1250
     12 C          63.5536   84.2169   12.1294 C.ar    1  UNL1        0.0218
     13 C          63.6053   81.9659   10.8332 C.3     1  UNL1        0.3581
     14 F          64.5024   82.5282    9.7707 F       1  UNL1       -0.1915
     15 F          62.9313   80.6425   10.6225 F       1  UNL1       -0.1915
     16 C          62.5625   89.6301   11.2192 C.3     1  UNL1        0.3611
     17 F          61.7274   90.8366   11.5309 F       1  UNL1       -0.1914
     18 F          62.8423   89.2598    9.7928 F       1  UNL1       -0.1914
     19 O          64.0160   90.9380   13.4945 O.3     1  UNL1       -0.4727
     20 C          65.3819   91.5333   13.6670 C.3     1  UNL1        0.2193
     21 C          65.7379   92.8099   12.9645 C.3     1  UNL1        0.0798
     22 C          65.0069   92.3408   11.7416 C.3     1  UNL1        0.0193
     23 N          66.0938   94.0866   12.2620 N.3     1  UNL1       -0.3203
     24 H          65.3229   94.3676   11.6561 H       1  UNL1        0.1189
     25 H          66.9329   93.9429   11.7002 H       1  UNL1        0.1189
     26 C          66.4689   93.2790   14.1874 C.3     1  UNL1        0.0179
     27 C          67.9698   92.4239   16.1280 C.3     1  UNL1        0.0000
     28 C          67.6889   92.5452   14.6596 C.3     1  UNL1        0.0014
     29 C          68.6281   91.9326   13.6632 C.3     1  UNL1        0.0000
@<TRIPOS>BOND
     1    27    28    1
     2    28    29    1
     3    28    26    1
     4    26    21    1
     5    21    22    1
     6    21    23    1
     7    21    20    1
     8    20    19    1
     9    19     1    1
    10     1     2   ar
    11     2     3   ar
    12     3     4   ar
    13     4     7    1
    14     7     8   ar
    15     8     9   ar
    16     9    10   ar
    17    10    11   ar
    18    11    13    1
    19    13    14    1
    20    13    15    1
    21    11    12   ar
    22     4     5   ar
    23     5     6   ar
    24     6    16    1
    25    16    17    1
    26    16    18    1
    27     6     1   ar
    28    12     7   ar
    29    23    24    1
    30    23    25    1
@<TRIPOS>MOLECULE
*****
 29 30 0 0 0
SMALL
GASTEIGER

@<TRIPOS>ATOM
      1 C          63.8526   89.5733   13.3783 C.ar    1  UNL1        0.1575
      2 C          64.4395   88.7888   14.5141 C.ar    1  UNL1        0.0399
      3 C          64.2885   87.2969   14.5521 C.ar    1  UNL1        0.0222
      4 C          63.5507   86.5895   13.4543 C.ar    1  UNL1        0.0814
      5 N          62.9638   87.3741   12.3185 N.ar    1  UNL1       -0.2411
      6 C          63.1148   88.8660   12.2805 C.ar    1  UNL1        0.1586
      7 C          63.3997   85.0976   13.4922 C.ar    1  UNL1        0.0205
      8 C          63.0801   84.4088   14.7858 C.ar    1  UNL1        0.0222
      9 C          62.9291   82.9169   14.8238 C.ar    1  UNL1        0.0987
     10 N          63.0977   82.1138   13.5682 N.ar    1  UNL1       -0.2426
     11 C          63.4173   82.8026   12.2746 C.ar    1  UNL1        0.1250
     12 C          63.5683   84.2945   12.2367 C.ar    1  UNL1        0.0218
     13 C          63.5859   81.9995   11.0190 C.3     1  UNL1        0.3581
     14 F          64.4524   82.5163    9.9089 F       1  UNL1       -0.1915
     15 F          62.8882   80.6797   10.8734 F       1  UNL1       -0.1915
     16 C          62.5279   89.6505   11.1446 C.3     1  UNL1        0.3611
     17 F          62.7647   89.2129    9.7296 F       1  UNL1       -0.1914
     18 F          61.7042   90.8726   11.4238 F       1  UNL1       -0.1914
     19 O          64.0036   91.0652   13.3403 O.3     1  UNL1       -0.4727
     20 C          64.8855   91.7038   12.3086 C.3     1  UNL1        0.2193
     21 C          65.7878   92.8390   12.6921 C.3     1  UNL1        0.0798
     22 C          65.9373   92.2560   14.0660 C.3     1  UNL1        0.0193
     23 N          66.6901   93.9742   13.0756 N.3     1  UNL1       -0.3203
     24 H          67.4165   93.6333   13.7054 H       1  UNL1        0.1189
     25 H          66.1455   94.6979   13.5447 H       1  UNL1        0.1189
     26 C          65.6382   93.4220   11.3181 C.3     1  UNL1        0.0179
     27 C          67.1604   94.7846    9.7130 C.3     1  UNL1        0.0000
     28 C          66.8232   93.4952   10.4014 C.3     1  UNL1        0.0014
     29 C          67.6711   92.2790   10.1731 C.3     1  UNL1        0.0000
@<TRIPOS>BOND
     1    27    28    1
     2    28    29    1
     3    28    26    1
     4    26    21    1
     5    21    22    1
     6    21    23    1
     7    21    20    1
     8    20    19    1
     9    19     1    1
    10     1     2   ar
    11     2     3   ar
    12     3     4   ar
    13     4     7    1
    14     7     8   ar
    15     8     9   ar
    16     9    10   ar
    17    10    11   ar
    18    11    13    1
    19    13    14    1
    20    13    15    1
    21    11    12   ar
    22     4     5   ar
    23     5     6   ar
    24     6    16    1
    25    16    17    1
    26    16    18    1
    27     6     1   ar
    28    12     7   ar
    29    23    24    1
    30    23    25    1
@<TRIPOS>MOLECULE
*****
 29 30 0 0 0
SMALL
GASTEIGER

@<TRIPOS>ATOM
      1 C          63.6345   88.7020   13.5199 C.ar    1  UNL1        0.1575
      2 C          64.2337   87.6349   14.3871 C.ar    1  UNL1        0.0399
      3 C          64.1224   86.1934   13.9876 C.ar    1  UNL1        0.0222
      4 C          63.4120   85.8190   12.7207 C.ar    1  UNL1        0.0814
      5 N          62.8128   86.8861   11.8534 N.ar    1  UNL1       -0.2411
      6 C          62.9240   88.3276   12.2530 C.ar    1  UNL1        0.1586
      7 C          63.3007   84.3775   12.3211 C.ar    1  UNL1        0.0205
      8 C          63.8129   83.9279   10.9850 C.ar    1  UNL1        0.0222
      9 C          63.7016   82.4864   10.5854 C.ar    1  UNL1        0.0987
     10 N          63.0781   81.4945   11.5220 N.ar    1  UNL1       -0.2426
     11 C          62.5659   81.9441   12.8582 C.ar    1  UNL1        0.1250
     12 C          62.6772   83.3856   13.2577 C.ar    1  UNL1        0.0218
     13 C          61.9424   80.9521   13.7949 C.3     1  UNL1        0.3581
     14 F          60.5885   81.2228   14.3813 F       1  UNL1       -0.1915
     15 F          62.6727   79.6896   14.1451 F       1  UNL1       -0.1915
     16 C          62.3248   89.3947   11.3856 C.3     1  UNL1        0.3611
     17 F          61.0891   90.1182   11.8324 F       1  UNL1       -0.1914
     18 F          62.9612   89.7383   10.0716 F       1  UNL1       -0.1914
     19 O          63.7458   90.1435   13.9194 O.3     1  UNL1       -0.4727
     20 C          64.9725   90.6320   14.6311 C.3     1  UNL1        0.2193
     21 C          64.8553   91.6909   15.6871 C.3     1  UNL1        0.0798
     22 C          63.8749   90.8368   16.4348 C.3     1  UNL1        0.0193
     23 N          64.7381   92.7498   16.7430 N.3     1  UNL1       -0.3203
     24 H          64.6221   92.3088   17.6554 H       1  UNL1        0.1189
     25 H          63.9297   93.3394   16.5451 H       1  UNL1        0.1189
     26 C          65.8358   92.5450   14.9393 C.3     1  UNL1        0.0179
     27 C          67.9555   91.8117   13.6283 C.3     1  UNL1        0.0000
     28 C          67.2899   92.1776   14.9218 C.3     1  UNL1        0.0014
     29 C          68.0786   92.1761   16.1978 C.3     1  UNL1        0.0000
@<TRIPOS>BOND
     1    27    28    1
     2    28    29    1
     3    28    26    1
     4    26    21    1
     5    21    22    1
     6    21    23    1
     7    21    20    1
     8    20    19    1
     9    19     1    1
    10     1     2   ar
    11     2     3   ar
    12     3     4   ar
    13     4     7    1
    14     7     8   ar
    15     8     9   ar
    16     9    10   ar
    17    10    11   ar
    18    11    13    1
    19    13    14    1
    20    13    15    1
    21    11    12   ar
    22     4     5   ar
    23     5     6   ar
    24     6    16    1
    25    16    17    1
    26    16    18    1
    27     6     1   ar
    28    12     7   ar
    29    23    24    1
    30    23    25    1
@<TRIPOS>MOLECULE
*****
 29 30 0 0 0
SMALL
GASTEIGER

@<TRIPOS>ATOM
      1 C          63.2034   86.0170   12.7468 C.ar    1  UNL1        0.1575
      2 C          63.9820   85.9978   14.0287 C.ar    1  UNL1        0.0399
      3 C          64.3682   87.2870   14.6910 C.ar    1  UNL1        0.0222
      4 C          63.9759   88.5955   14.0714 C.ar    1  UNL1        0.0814
      5 N          63.1973   88.6147   12.7895 N.ar    1  UNL1       -0.2411
      6 C          62.8111   87.3255   12.1272 C.ar    1  UNL1        0.1586
      7 C          64.3621   89.8847   14.7338 C.ar    1  UNL1        0.0205
      8 C          63.6699   90.3185   15.9917 C.ar    1  UNL1        0.0222
      9 C          64.0561   91.6077   16.6541 C.ar    1  UNL1        0.0987
     10 N          65.1346   92.4632   16.0584 N.ar    1  UNL1       -0.2426
     11 C          65.8269   92.0294   14.8004 C.ar    1  UNL1        0.1250
     12 C          65.4407   90.7402   14.1381 C.ar    1  UNL1        0.0218
     13 C          66.9055   92.8850   14.2047 C.3     1  UNL1        0.3581
     14 F          66.6302   94.3244   13.8848 F       1  UNL1       -0.1915
     15 F          68.2594   92.3010   13.9289 F       1  UNL1       -0.1915
     16 C          62.0325   87.3447   10.8452 C.3     1  UNL1        0.3611
     17 F          62.4996   88.1889    9.6966 F       1  UNL1       -0.1914
     18 F          60.7868   86.5199   10.7118 F       1  UNL1       -0.1914
     19 O          62.8171   84.7278   12.0845 O.3     1  UNL1       -0.4727
     20 C          63.8705   83.7178   11.7376 C.3     1  UNL1        0.2193
     21 C          63.4757   82.3894   11.1635 C.3     1  UNL1        0.0798
     22 C          64.6251   82.4631   10.2026 C.3     1  UNL1        0.0193
     23 N          63.0810   81.0610   10.5894 N.3     1  UNL1       -0.3203
     24 H          63.9188   80.5397   10.3312 H       1  UNL1        0.1189
     25 H          62.5026   81.2066    9.7619 H       1  UNL1        0.1189
     26 C          62.3263   82.3156   12.1244 C.3     1  UNL1        0.0179
     27 C          61.1227   80.9255   13.9599 C.3     1  UNL1        0.0000
     28 C          62.3885   81.3835   13.2980 C.3     1  UNL1        0.0014
     29 C          63.7164   80.9093   13.8096 C.3     1  UNL1        0.0000
@<TRIPOS>BOND
     1    27    28    1
     2    28    29    1
     3    28    26    1
     4    26    21    1
     5    21    22    1
     6    21    23    1
     7    21    20    1
     8    20    19    1
     9    19     1    1
    10     1     2   ar
    11     2     3   ar
    12     3     4   ar
    13     4     7    1
    14     7     8   ar
    15     8     9   ar
    16     9    10   ar
    17    10    11   ar
    18    11    13    1
    19    13    14    1
    20    13    15    1
    21    11    12   ar
    22     4     5   ar
    23     5     6   ar
    24     6    16    1
    25    16    17    1
    26    16    18    1
    27     6     1   ar
    28    12     7   ar
    29    23    24    1
    30    23    25    1
@<TRIPOS>MOLECULE
*****
 29 30 0 0 0
SMALL
GASTEIGER

@<TRIPOS>ATOM
      1 C          64.0182   90.7025   12.6864 C.ar    1  UNL1        0.1575
      2 C          63.6469   91.3849   11.4032 C.ar    1  UNL1        0.0399
      3 C          62.7477   90.6957   10.4202 C.ar    1  UNL1        0.0222
      4 C          62.2197   89.3241   10.7202 C.ar    1  UNL1        0.0814
      5 N          62.5910   88.6418   12.0034 N.ar    1  UNL1       -0.2411
      6 C          63.4902   89.3310   12.9864 C.ar    1  UNL1        0.1586
      7 C          61.3205   88.6349    9.7372 C.ar    1  UNL1        0.0205
      8 C          61.0276   87.1714    9.8867 C.ar    1  UNL1        0.0222
      9 C          60.1284   86.4823    8.9036 C.ar    1  UNL1        0.0987
     10 N          59.5220   87.2565    7.7711 N.ar    1  UNL1       -0.2426
     11 C          59.8149   88.7200    7.6216 C.ar    1  UNL1        0.1250
     12 C          60.7141   89.4092    8.6046 C.ar    1  UNL1        0.0218
     13 C          59.2085   89.4944    6.4890 C.3     1  UNL1        0.3581
     14 F          57.7194   89.6517    6.4005 F       1  UNL1       -0.1915
     15 F          60.0912   90.1114    5.4449 F       1  UNL1       -0.1915
     16 C          63.8615   88.6486   14.2697 C.3     1  UNL1        0.3611
     17 F          63.5197   89.2855   15.5840 F       1  UNL1       -0.1914
     18 F          64.5745   87.3292   14.2385 F       1  UNL1       -0.1914
     19 O          64.9174   91.3917   13.6694 O.3     1  UNL1       -0.4727
     20 C          65.9057   92.4144   13.1928 C.3     1  UNL1        0.2193
     21 C          67.3380   92.0275   12.9720 C.3     1  UNL1        0.0798
     22 C          67.2489   92.5070   11.5535 C.3     1  UNL1        0.0193
     23 N          68.7703   91.6405   12.7512 N.3     1  UNL1       -0.3203
     24 H          69.2115   92.3133   12.1243 H       1  UNL1        0.1189
     25 H          68.8109   90.7103   12.3347 H       1  UNL1        0.1189
     26 C          67.4271   91.5479   14.3905 C.3     1  UNL1        0.0179
     27 C          68.8005   93.3806   15.6173 C.3     1  UNL1        0.0000
     28 C          67.5646   92.5373   15.5094 C.3     1  UNL1        0.0014
     29 C          66.4663   92.6836   16.5206 C.3     1  UNL1        0.0000
@<TRIPOS>BOND
     1    27    28    1
     2    28    29    1
     3    28    26    1
     4    26    21    1
     5    21    22    1
     6    21    23    1
     7    21    20    1
     8    20    19    1
     9    19     1    1
    10     1     2   ar
    11     2     3   ar
    12     3     4   ar
    13     4     7    1
    14     7     8   ar
    15     8     9   ar
    16     9    10   ar
    17    10    11   ar
    18    11    13    1
    19    13    14    1
    20    13    15    1
    21    11    12   ar
    22     4     5   ar
    23     5     6   ar
    24     6    16    1
    25    16    17    1
    26    16    18    1
    27     6     1   ar
    28    12     7   ar
    29    23    24    1
    30    23    25    1
@<TRIPOS>MOLECULE
*****
 29 30 0 0 0
SMALL
GASTEIGER

@<TRIPOS>ATOM
      1 C          64.1860   90.2638   13.5011 C.ar    1  UNL1        0.1575
      2 C          63.7647   91.0059   12.2675 C.ar    1  UNL1        0.0399
      3 C          62.9810   90.3020   11.1996 C.ar    1  UNL1        0.0222
      4 C          62.6185   88.8560   11.3653 C.ar    1  UNL1        0.0814
      5 N          63.0398   88.1138   12.5989 N.ar    1  UNL1       -0.2411
      6 C          63.8235   88.8177   13.6667 C.ar    1  UNL1        0.1586
      7 C          61.8348   88.1521   10.2974 C.ar    1  UNL1        0.0205
      8 C          61.8435   86.6539   10.2251 C.ar    1  UNL1        0.0222
      9 C          61.0598   85.9500    9.1573 C.ar    1  UNL1        0.0987
     10 N          60.2674   86.7444    8.1617 N.ar    1  UNL1       -0.2426
     11 C          60.2588   88.2426    8.2340 C.ar    1  UNL1        0.1250
     12 C          61.0425   88.9464    9.3019 C.ar    1  UNL1        0.0218
     13 C          59.4664   89.0370    7.2384 C.3     1  UNL1        0.3581
     14 F          60.1530   90.0478    6.3685 F       1  UNL1       -0.1915
     15 F          57.9874   88.8205    7.1128 F       1  UNL1       -0.1915
     16 C          64.2447   88.0754   14.9003 C.3     1  UNL1        0.3611
     17 F          63.7224   88.4943   16.2426 F       1  UNL1       -0.1914
     18 F          65.1882   86.9145   14.7916 F       1  UNL1       -0.1914
     19 O          64.9697   90.9676   14.5689 O.3     1  UNL1       -0.4727
     20 C          65.6724   92.2557   14.2577 C.3     1  UNL1        0.2193
     21 C          67.1661   92.3405   14.3661 C.3     1  UNL1        0.0798
     22 C          67.0406   92.6943   15.8183 C.3     1  UNL1        0.0193
     23 N          68.6597   92.4252   14.4745 N.3     1  UNL1       -0.3203
     24 H          68.9540   92.0855   15.3901 H       1  UNL1        0.1189
     25 H          68.9544   93.3950   14.3608 H       1  UNL1        0.1189
     26 C          67.2915   91.9866   12.9138 C.3     1  UNL1        0.0179
     27 C          66.7920   92.5293   10.4226 C.3     1  UNL1        0.0000
     28 C          66.8079   92.9430   11.8644 C.3     1  UNL1        0.0014
     29 C          66.3401   94.3132   12.2566 C.3     1  UNL1        0.0000
@<TRIPOS>BOND
     1    27    28    1
     2    28    29    1
     3    28    26    1
     4    26    21    1
     5    21    22    1
     6    21    23    1
     7    21    20    1
     8    20    19    1
     9    19     1    1
    10     1     2   ar
    11     2     3   ar
    12     3     4   ar
    13     4     7    1
    14     7     8   ar
    15     8     9   ar
    16     9    10   ar
    17    10    11   ar
    18    11    13    1
    19    13    14    1
    20    13    15    1
    21    11    12   ar
    22     4     5   ar
    23     5     6   ar
    24     6    16    1
    25    16    17    1
    26    16    18    1
    27     6     1   ar
    28    12     7   ar
    29    23    24    1
    30    23    25    1
@<TRIPOS>MOLECULE
*****
 29 30 0 0 0
SMALL
GASTEIGER

@<TRIPOS>ATOM
      1 C          63.1392   86.5720   13.1634 C.ar    1  UNL1        0.1575
      2 C          62.8244   87.6550   12.1744 C.ar    1  UNL1        0.0399
      3 C          63.3943   89.0299   12.3611 C.ar    1  UNL1        0.0222
      4 C          64.2790   89.3218   13.5367 C.ar    1  UNL1        0.0814
      5 N          64.5938   88.2389   14.5256 N.ar    1  UNL1       -0.2411
      6 C          64.0239   86.8640   14.3390 C.ar    1  UNL1        0.1586
      7 C          64.8489   90.6967   13.7234 C.ar    1  UNL1        0.0205
      8 C          65.2142   91.1772   15.0966 C.ar    1  UNL1        0.0222
      9 C          65.7841   92.5521   15.2833 C.ar    1  UNL1        0.0987
     10 N          65.9887   93.4465   14.0967 N.ar    1  UNL1       -0.2426
     11 C          65.6235   92.9661   12.7235 C.ar    1  UNL1        0.1250
     12 C          65.0536   91.5912   12.5368 C.ar    1  UNL1        0.0218
     13 C          65.8282   93.8607   11.5369 C.3     1  UNL1        0.3581
     14 F          65.8046   93.2859   10.1515 F       1  UNL1       -0.1915
     15 F          66.0564   95.3298   11.7356 F       1  UNL1       -0.1915
     16 C          64.3387   85.7810   15.3280 C.3     1  UNL1        0.3611
     17 F          65.1792   84.6092   14.9149 F       1  UNL1       -0.1914
     18 F          63.8130   85.8697   16.7300 F       1  UNL1       -0.1914
     19 O          62.5693   85.1971   12.9767 O.3     1  UNL1       -0.4727
     20 C          62.5891   84.5547   11.6214 C.3     1  UNL1        0.2193
     21 C          63.7245   83.6538   11.2351 C.3     1  UNL1        0.0798
     22 C          63.6776   84.1944    9.8367 C.3     1  UNL1        0.0193
     23 N          64.8599   82.7529   10.8487 N.3     1  UNL1       -0.3203
     24 H          65.4584   83.2301   10.1746 H       1  UNL1        0.1189
     25 H          64.4896   81.8995   10.4303 H       1  UNL1        0.1189
     26 C          63.7714   83.1131   12.6335 C.3     1  UNL1        0.0179
     27 C          62.7419   80.7825   12.1255 C.3     1  UNL1        0.0000
     28 C          62.8794   81.9733   13.0272 C.3     1  UNL1        0.0014
     29 C          62.1249   82.0242   14.3227 C.3     1  UNL1        0.0000
@<TRIPOS>BOND
     1    27    28    1
     2    28    29    1
     3    28    26    1
     4    26    21    1
     5    21    22    1
     6    21    23    1
     7    21    20    1
     8    20    19    1
     9    19     1    1
    10     1     2   ar
    11     2     3   ar
    12     3     4   ar
    13     4     7    1
    14     7     8   ar
    15     8     9   ar
    16     9    10   ar
    17    10    11   ar
    18    11    13    1
    19    13    14    1
    20    13    15    1
    21    11    12   ar
    22     4     5   ar
    23     5     6   ar
    24     6    16    1
    25    16    17    1
    26    16    18    1
    27     6     1   ar
    28    12     7   ar
    29    23    24    1
    30    23    25    1
