@<TRIPOS>MOLECULE
*****
 23 25 0 0 0
SMALL
GASTEIGER

@<TRIPOS>ATOM
      1 C          62.0124   86.7608   10.8610 C.3     1  UNL1        0.0847
      2 N          62.4433   88.1861   11.0421 N.3     1  UNL1       -0.2676
      3 C          63.1218   88.6090   12.3113 C.3     1  UNL1        0.0896
      4 C          63.5527   90.0343   12.4925 C.3     1  UNL1        0.0862
      5 N          63.3052   91.0367   11.4044 N.3     1  UNL1       -0.2951
      6 C          62.6267   90.6138   10.1352 C.3     1  UNL1        0.0862
      7 C          62.1958   89.1885    9.9540 C.3     1  UNL1        0.0896
      8 H          64.2148   91.4150   11.1401 H       1  UNL1        0.1233
      9 C          61.8072   86.2088    9.4814 C.ar    1  UNL1       -0.0075
     10 C          60.4608   86.3057    8.8274 C.ar    1  UNL1       -0.0030
     11 C          60.2556   85.7537    7.4478 C.ar    1  UNL1       -0.0003
     12 C          61.3969   85.1048    6.7223 C.ar    1  UNL1       -0.0000
     13 C          62.7433   85.0080    7.3763 C.ar    1  UNL1       -0.0003
     14 C          62.9485   85.5599    8.7558 C.ar    1  UNL1       -0.0030
     15 C          61.7867   85.8875   12.0595 C.3     1  UNL1        0.0499
     16 C          63.6407   84.7253   13.4603 C.ar    1  UNL1        0.1347
     17 C          64.5348   83.5468   13.7086 C.ar    1  UNL1        0.0366
     18 C          64.4691   82.3519   12.8043 C.ar    1  UNL1        0.0031
     19 C          63.5092   82.3355   11.6517 C.ar    1  UNL1       -0.0001
     20 C          62.6151   83.5140   11.4034 C.ar    1  UNL1       -0.0012
     21 C          62.6808   84.7089   12.3077 C.ar    1  UNL1        0.0135
     22 C          63.9222   85.7353   15.8374 C.3     1  UNL1        0.2525
     23 O          63.7064   85.9203   14.3646 O.3     1  UNL1       -0.4717
@<TRIPOS>BOND
     1    22    23    1
     2    23    16    1
     3    16    17   ar
     4    17    18   ar
     5    18    19   ar
     6    19    20   ar
     7    20    21   ar
     8    21    15    1
     9    15     1    1
    10     1     9    1
    11     9    10   ar
    12    10    11   ar
    13    11    12   ar
    14    12    13   ar
    15    13    14   ar
    16     1     2    1
    17     2     3    1
    18     3     4    1
    19     4     5    1
    20     5     6    1
    21     6     7    1
    22    21    16   ar
    23    14     9   ar
    24     7     2    1
    25     5     8    1
@<TRIPOS>MOLECULE
*****
 23 25 0 0 0
SMALL
GASTEIGER

@<TRIPOS>ATOM
      1 C          61.4088   87.7121   10.6575 C.3     1  UNL1        0.0847
      2 N          60.5541   87.8255    9.4300 N.3     1  UNL1       -0.2676
      3 C          60.3438   89.1625    8.7834 C.3     1  UNL1        0.0896
      4 C          59.4892   89.2759    7.5559 C.3     1  UNL1        0.0862
      5 N          58.8449   88.0522    6.9751 N.3     1  UNL1       -0.2951
      6 C          59.0552   86.7152    7.6217 C.3     1  UNL1        0.0862
      7 C          59.9098   86.6018    8.8491 C.3     1  UNL1        0.0896
      8 H          59.1795   87.9709    6.0150 H       1  UNL1        0.1233
      9 C          62.2799   88.8602   11.0735 C.ar    1  UNL1       -0.0075
     10 C          62.5100   90.0061   10.1334 C.ar    1  UNL1       -0.0030
     11 C          63.3811   91.1542   10.5495 C.ar    1  UNL1       -0.0003
     12 C          64.0221   91.1563   11.9057 C.ar    1  UNL1       -0.0000
     13 C          63.7920   90.0104   12.8458 C.ar    1  UNL1       -0.0003
     14 C          62.9209   88.8623   12.4297 C.ar    1  UNL1       -0.0030
     15 C          61.3923   86.4506   11.4690 C.3     1  UNL1        0.0499
     16 C          62.9618   84.5571   12.3064 C.ar    1  UNL1        0.1347
     17 C          63.9507   83.4668   12.0178 C.ar    1  UNL1        0.0366
     18 C          64.3590   83.1796   10.6033 C.ar    1  UNL1        0.0031
     19 C          63.7784   83.9828    9.4774 C.ar    1  UNL1       -0.0001
     20 C          62.7895   85.0731    9.7659 C.ar    1  UNL1       -0.0012
     21 C          62.3813   85.3603   11.1804 C.ar    1  UNL1        0.0135
     22 C          62.4315   83.7221   14.7088 C.3     1  UNL1        0.2525
     23 O          62.5535   84.8442   13.7209 O.3     1  UNL1       -0.4717
@<TRIPOS>BOND
     1    22    23    1
     2    23    16    1
     3    16    17   ar
     4    17    18   ar
     5    18    19   ar
     6    19    20   ar
     7    20    21   ar
     8    21    15    1
     9    15     1    1
    10     1     9    1
    11     9    10   ar
    12    10    11   ar
    13    11    12   ar
    14    12    13   ar
    15    13    14   ar
    16     1     2    1
    17     2     3    1
    18     3     4    1
    19     4     5    1
    20     5     6    1
    21     6     7    1
    22    21    16   ar
    23    14     9   ar
    24     7     2    1
    25     5     8    1
@<TRIPOS>MOLECULE
*****
 23 25 0 0 0
SMALL
GASTEIGER

@<TRIPOS>ATOM
      1 C          61.9912   86.7566   10.8255 C.3     1  UNL1        0.0847
      2 N          61.7501   86.2285    9.4424 N.3     1  UNL1       -0.2676
      3 C          60.3900   86.3471    8.8208 C.3     1  UNL1        0.0896
      4 C          60.1489   85.8190    7.4377 C.3     1  UNL1        0.0862
      5 N          61.2678   85.1724    6.6762 N.3     1  UNL1       -0.2951
      6 C          62.6278   85.0539    7.2977 C.3     1  UNL1        0.0862
      7 C          62.8689   85.5819    8.6808 C.3     1  UNL1        0.0896
      8 H          61.3835   85.7050    5.8140 H       1  UNL1        0.1233
      9 C          62.4571   88.1693   11.0183 C.ar    1  UNL1       -0.0075
     10 C          62.2872   89.1721    9.9159 C.ar    1  UNL1       -0.0030
     11 C          62.7532   90.5849   10.1088 C.ar    1  UNL1       -0.0003
     12 C          63.3890   90.9947   11.4040 C.ar    1  UNL1       -0.0000
     13 C          63.5588   89.9918   12.5065 C.ar    1  UNL1       -0.0003
     14 C          63.0929   88.5791   12.3137 C.ar    1  UNL1       -0.0030
     15 C          61.7663   85.8719   12.0158 C.3     1  UNL1        0.0499
     16 C          63.6082   84.7074   13.4306 C.ar    1  UNL1        0.1347
     17 C          64.5117   83.5353   13.6752 C.ar    1  UNL1        0.0366
     18 C          64.4768   82.3555   12.7496 C.ar    1  UNL1        0.0031
     19 C          63.5384   82.3478   11.5794 C.ar    1  UNL1       -0.0001
     20 C          62.6349   83.5199   11.3348 C.ar    1  UNL1       -0.0012
     21 C          62.6698   84.6997   12.2604 C.ar    1  UNL1        0.0135
     22 C          64.9050   86.2251   15.0936 C.3     1  UNL1        0.2525
     23 O          63.6431   85.8873   14.3562 O.3     1  UNL1       -0.4717
@<TRIPOS>BOND
     1    22    23    1
     2    23    16    1
     3    16    17   ar
     4    17    18   ar
     5    18    19   ar
     6    19    20   ar
     7    20    21   ar
     8    21    15    1
     9    15     1    1
    10     1     9    1
    11     9    10   ar
    12    10    11   ar
    13    11    12   ar
    14    12    13   ar
    15    13    14   ar
    16     1     2    1
    17     2     3    1
    18     3     4    1
    19     4     5    1
    20     5     6    1
    21     6     7    1
    22    21    16   ar
    23    14     9   ar
    24     7     2    1
    25     5     8    1
@<TRIPOS>MOLECULE
*****
 23 25 0 0 0
SMALL
GASTEIGER

@<TRIPOS>ATOM
      1 C          62.1215   86.2298   11.2738 C.3     1  UNL1        0.0847
      2 N          62.8282   85.2470   12.1597 N.3     1  UNL1       -0.2676
      3 C          62.6800   83.7746   11.9143 C.3     1  UNL1        0.0896
      4 C          63.3867   82.7918   12.8001 C.3     1  UNL1        0.0862
      5 N          64.2415   83.2813   13.9313 N.3     1  UNL1       -0.2951
      6 C          64.3897   84.7537   14.1766 C.3     1  UNL1        0.0862
      7 C          63.6831   85.7365   13.2908 C.3     1  UNL1        0.0896
      8 H          65.1795   82.9135   13.7721 H       1  UNL1        0.1233
      9 C          61.9140   85.9164    9.8217 C.ar    1  UNL1       -0.0075
     10 C          60.6082   86.2476    9.1621 C.ar    1  UNL1       -0.0030
     11 C          60.4007   85.9342    7.7099 C.ar    1  UNL1       -0.0003
     12 C          61.4991   85.2897    6.9174 C.ar    1  UNL1       -0.0000
     13 C          62.8050   84.9585    7.5770 C.ar    1  UNL1       -0.0003
     14 C          63.0125   85.2719    9.0291 C.ar    1  UNL1       -0.0030
     15 C          61.6224   87.5260   11.8402 C.3     1  UNL1        0.0499
     16 C          63.1775   89.4819   12.5515 C.ar    1  UNL1        0.1347
     17 C          63.8840   90.7643   12.2256 C.ar    1  UNL1        0.0366
     18 C          63.7418   91.3733   10.8622 C.ar    1  UNL1        0.0031
     19 C          62.8931   90.6998    9.8248 C.ar    1  UNL1       -0.0001
     20 C          62.1866   89.4174   10.1507 C.ar    1  UNL1       -0.0012
     21 C          62.3288   88.8084   11.5141 C.ar    1  UNL1        0.0135
     22 C          63.4652   89.7554   15.1192 C.3     1  UNL1        0.2525
     23 O          63.3197   88.8729   13.9150 O.3     1  UNL1       -0.4717
@<TRIPOS>BOND
     1    22    23    1
     2    23    16    1
     3    16    17   ar
     4    17    18   ar
     5    18    19   ar
     6    19    20   ar
     7    20    21   ar
     8    21    15    1
     9    15     1    1
    10     1     9    1
    11     9    10   ar
    12    10    11   ar
    13    11    12   ar
    14    12    13   ar
    15    13    14   ar
    16     1     2    1
    17     2     3    1
    18     3     4    1
    19     4     5    1
    20     5     6    1
    21     6     7    1
    22    21    16   ar
    23    14     9   ar
    24     7     2    1
    25     5     8    1
@<TRIPOS>MOLECULE
*****
 23 25 0 0 0
SMALL
GASTEIGER

@<TRIPOS>ATOM
      1 C          63.3554   85.4920   13.0061 C.3     1  UNL1        0.0847
      2 N          62.6386   86.4167   12.0674 N.3     1  UNL1       -0.2676
      3 C          63.0223   87.8654   12.0030 C.3     1  UNL1        0.0896
      4 C          62.3055   88.7901   11.0644 C.3     1  UNL1        0.0862
      5 N          61.2051   88.2661   10.1900 N.3     1  UNL1       -0.2951
      6 C          60.8215   86.8174   10.2543 C.3     1  UNL1        0.0862
      7 C          61.5382   85.8927   11.1930 C.3     1  UNL1        0.0896
      8 H          61.4795   88.4555    9.2260 H       1  UNL1        0.1233
      9 C          63.1306   84.0116   12.9180 C.ar    1  UNL1       -0.0075
     10 C          62.3507   83.3064   13.9878 C.ar    1  UNL1       -0.0030
     11 C          62.1259   81.8259   13.8996 C.ar    1  UNL1       -0.0003
     12 C          62.6810   81.0507   12.7416 C.ar    1  UNL1       -0.0000
     13 C          63.4609   81.7559   11.6718 C.ar    1  UNL1       -0.0003
     14 C          63.6857   83.2363   11.7600 C.ar    1  UNL1       -0.0030
     15 C          64.2971   86.0478   14.0330 C.3     1  UNL1        0.0499
     16 C          63.7667   88.0278   15.6294 C.ar    1  UNL1        0.1347
     17 C          63.2356   88.5359   16.9370 C.ar    1  UNL1        0.0366
     18 C          62.7037   87.5720   17.9557 C.ar    1  UNL1        0.0031
     19 C          62.7029   86.1000   17.6670 C.ar    1  UNL1       -0.0001
     20 C          63.2340   85.5920   16.3594 C.ar    1  UNL1       -0.0012
     21 C          63.7659   86.5559   15.3406 C.ar    1  UNL1        0.0135
     22 C          63.8320   90.4172   14.6114 C.3     1  UNL1        0.2525
     23 O          64.2986   88.9917   14.6106 O.3     1  UNL1       -0.4717
@<TRIPOS>BOND
     1    22    23    1
     2    23    16    1
     3    16    17   ar
     4    17    18   ar
     5    18    19   ar
     6    19    20   ar
     7    20    21   ar
     8    21    15    1
     9    15     1    1
    10     1     9    1
    11     9    10   ar
    12    10    11   ar
    13    11    12   ar
    14    12    13   ar
    15    13    14   ar
    16     1     2    1
    17     2     3    1
    18     3     4    1
    19     4     5    1
    20     5     6    1
    21     6     7    1
    22    21    16   ar
    23    14     9   ar
    24     7     2    1
    25     5     8    1
@<TRIPOS>MOLECULE
*****
 23 25 0 0 0
SMALL
GASTEIGER

@<TRIPOS>ATOM
      1 C          63.5729   85.1495   13.1601 C.3     1  UNL1        0.0847
      2 N          63.2979   83.7008   13.4353 N.3     1  UNL1       -0.2676
      3 C          62.0674   83.3021   14.1948 C.3     1  UNL1        0.0896
      4 C          61.7925   81.8534   14.4700 C.3     1  UNL1        0.0862
      5 N          62.7480   80.8035   13.9856 N.3     1  UNL1       -0.2951
      6 C          63.9784   81.2022   13.2261 C.3     1  UNL1        0.0862
      7 C          64.2534   82.6509   12.9509 C.3     1  UNL1        0.0896
      8 H          62.2166   80.1793   13.3786 H       1  UNL1        0.1233
      9 C          62.9485   85.8189   11.9718 C.ar    1  UNL1       -0.0075
     10 C          62.5137   85.0003   10.7924 C.ar    1  UNL1       -0.0030
     11 C          61.8893   85.6697    9.6041 C.ar    1  UNL1       -0.0003
     12 C          61.6998   87.1576    9.5951 C.ar    1  UNL1       -0.0000
     13 C          62.1346   87.9762   10.7745 C.ar    1  UNL1       -0.0003
     14 C          62.7590   87.3069   11.9628 C.ar    1  UNL1       -0.0030
     15 C          64.4722   85.9288   14.0733 C.3     1  UNL1        0.0499
     16 C          63.8386   88.0781   15.3883 C.ar    1  UNL1        0.1347
     17 C          63.2767   88.7317   16.6158 C.ar    1  UNL1        0.0366
     18 C          62.7863   87.8895   17.7561 C.ar    1  UNL1        0.0031
     19 C          62.8579   86.3938   17.6688 C.ar    1  UNL1       -0.0001
     20 C          63.4198   85.7402   16.4412 C.ar    1  UNL1       -0.0012
     21 C          63.9102   86.5824   15.3009 C.ar    1  UNL1        0.0135
     22 C          64.8829   90.2894   14.5106 C.3     1  UNL1        0.2525
     23 O          64.3291   88.9203   14.2479 O.3     1  UNL1       -0.4717
@<TRIPOS>BOND
     1    22    23    1
     2    23    16    1
     3    16    17   ar
     4    17    18   ar
     5    18    19   ar
     6    19    20   ar
     7    20    21   ar
     8    21    15    1
     9    15     1    1
    10     1     9    1
    11     9    10   ar
    12    10    11   ar
    13    11    12   ar
    14    12    13   ar
    15    13    14   ar
    16     1     2    1
    17     2     3    1
    18     3     4    1
    19     4     5    1
    20     5     6    1
    21     6     7    1
    22    21    16   ar
    23    14     9   ar
    24     7     2    1
    25     5     8    1
@<TRIPOS>MOLECULE
*****
 23 25 0 0 0
SMALL
GASTEIGER

@<TRIPOS>ATOM
      1 C          62.4168   87.1142   11.8289 C.3     1  UNL1        0.0847
      2 N          63.1477   86.2840   12.8421 N.3     1  UNL1       -0.2676
      3 C          63.0540   84.7877   12.7941 C.3     1  UNL1        0.0896
      4 C          63.7850   83.9575   13.8072 C.3     1  UNL1        0.0862
      5 N          64.6096   84.6237   14.8684 N.3     1  UNL1       -0.2951
      6 C          64.7033   86.1200   14.9165 C.3     1  UNL1        0.0862
      7 C          63.9724   86.9501   13.9033 C.3     1  UNL1        0.0896
      8 H          65.5616   84.2722   14.7654 H       1  UNL1        0.1233
      9 C          62.7864   88.5545   11.6320 C.ar    1  UNL1       -0.0075
     10 C          62.5076   89.2279   10.3209 C.ar    1  UNL1       -0.0030
     11 C          62.8774   90.6682   10.1240 C.ar    1  UNL1       -0.0003
     12 C          63.5258   91.4352   11.2381 C.ar    1  UNL1       -0.0000
     13 C          63.8046   90.7618   12.5492 C.ar    1  UNL1       -0.0003
     14 C          63.4349   89.3215   12.7461 C.ar    1  UNL1       -0.0030
     15 C          61.3161   86.5040   11.0127 C.3     1  UNL1        0.0499
     16 C          60.6326   86.1878    8.5261 C.ar    1  UNL1        0.1347
     17 C          60.9245   85.6488    7.1571 C.ar    1  UNL1        0.0366
     18 C          62.1919   84.8871    6.9056 C.ar    1  UNL1        0.0031
     19 C          63.1674   84.6643    8.0231 C.ar    1  UNL1       -0.0001
     20 C          62.8755   85.2032    9.3921 C.ar    1  UNL1       -0.0012
     21 C          61.6081   85.9650    9.6436 C.ar    1  UNL1        0.0135
     22 C          59.0024   88.1121    7.9020 C.3     1  UNL1        0.2525
     23 O          59.3651   86.9495    8.7777 O.3     1  UNL1       -0.4717
@<TRIPOS>BOND
     1    22    23    1
     2    23    16    1
     3    16    17   ar
     4    17    18   ar
     5    18    19   ar
     6    19    20   ar
     7    20    21   ar
     8    21    15    1
     9    15     1    1
    10     1     9    1
    11     9    10   ar
    12    10    11   ar
    13    11    12   ar
    14    12    13   ar
    15    13    14   ar
    16     1     2    1
    17     2     3    1
    18     3     4    1
    19     4     5    1
    20     5     6    1
    21     6     7    1
    22    21    16   ar
    23    14     9   ar
    24     7     2    1
    25     5     8    1
@<TRIPOS>MOLECULE
*****
 23 25 0 0 0
SMALL
GASTEIGER

@<TRIPOS>ATOM
      1 C          61.5726   87.5967   10.8636 C.3     1  UNL1        0.0847
      2 N          62.4205   88.7657   11.2696 N.3     1  UNL1       -0.2676
      3 C          62.5806   89.9339   10.3425 C.3     1  UNL1        0.0896
      4 C          63.4284   91.1028   10.7484 C.3     1  UNL1        0.0862
      5 N          64.1161   91.1035   12.0815 N.3     1  UNL1       -0.2951
      6 C          63.9559   89.9352   13.0086 C.3     1  UNL1        0.0862
      7 C          63.1081   88.7663   12.6027 C.3     1  UNL1        0.0896
      8 H          63.7830   91.9261   12.5842 H       1  UNL1        0.1233
      9 C          60.7800   87.6511    9.5913 C.ar    1  UNL1       -0.0075
     10 C          60.3620   88.9753    9.0241 C.ar    1  UNL1       -0.0030
     11 C          59.5693   89.0297    7.7517 C.ar    1  UNL1       -0.0003
     12 C          59.1946   87.7598    7.0467 C.ar    1  UNL1       -0.0000
     13 C          59.6125   86.4356    7.6140 C.ar    1  UNL1       -0.0003
     14 C          60.4052   86.3812    8.8863 C.ar    1  UNL1       -0.0030
     15 C          61.5175   86.3734   11.7299 C.3     1  UNL1        0.0499
     16 C          63.2730   84.7524   12.7499 C.ar    1  UNL1        0.1347
     17 C          64.2913   83.6647   12.5774 C.ar    1  UNL1        0.0366
     18 C          64.5725   83.1102   11.2123 C.ar    1  UNL1        0.0031
     19 C          63.8353   83.6435   10.0197 C.ar    1  UNL1       -0.0001
     20 C          62.8170   84.7312   10.1923 C.ar    1  UNL1       -0.0012
     21 C          62.5358   85.2856   11.5573 C.ar    1  UNL1        0.0135
     22 C          64.1089   85.4711   15.1025 C.3     1  UNL1        0.2525
     23 O          62.9918   85.3069   14.1150 O.3     1  UNL1       -0.4717
@<TRIPOS>BOND
     1    22    23    1
     2    23    16    1
     3    16    17   ar
     4    17    18   ar
     5    18    19   ar
     6    19    20   ar
     7    20    21   ar
     8    21    15    1
     9    15     1    1
    10     1     9    1
    11     9    10   ar
    12    10    11   ar
    13    11    12   ar
    14    12    13   ar
    15    13    14   ar
    16     1     2    1
    17     2     3    1
    18     3     4    1
    19     4     5    1
    20     5     6    1
    21     6     7    1
    22    21    16   ar
    23    14     9   ar
    24     7     2    1
    25     5     8    1
@<TRIPOS>MOLECULE
*****
 23 25 0 0 0
SMALL
GASTEIGER

@<TRIPOS>ATOM
      1 C          64.3440   89.2790   13.9788 C.3     1  UNL1        0.0847
      2 N          64.7302   90.4953   14.7672 N.3     1  UNL1       -0.2676
      3 C          63.8549   90.9713   15.8885 C.3     1  UNL1        0.0896
      4 C          64.2410   92.1876   16.6769 C.3     1  UNL1        0.0862
      5 N          65.5024   92.9279   16.3439 N.3     1  UNL1       -0.2951
      6 C          66.3776   92.4519   15.2226 C.3     1  UNL1        0.0862
      7 C          65.9915   91.2356   14.4342 C.3     1  UNL1        0.0896
      8 H          66.0765   92.9254   17.1870 H       1  UNL1        0.1233
      9 C          63.5385   89.4245   12.7219 C.ar    1  UNL1       -0.0075
     10 C          63.2826   90.7867   12.1485 C.ar    1  UNL1       -0.0030
     11 C          62.4771   90.9322   10.8915 C.ar    1  UNL1       -0.0003
     12 C          61.9274   89.7154   10.2079 C.ar    1  UNL1       -0.0000
     13 C          62.1832   88.3532   10.7814 C.ar    1  UNL1       -0.0003
     14 C          62.9887   88.2077   12.0383 C.ar    1  UNL1       -0.0030
     15 C          64.7634   87.9172   14.4474 C.3     1  UNL1        0.0499
     16 C          63.5943   85.7209   15.1956 C.ar    1  UNL1        0.1347
     17 C          62.7446   84.9713   16.1784 C.ar    1  UNL1        0.0366
     18 C          62.2141   85.6684   17.3960 C.ar    1  UNL1        0.0031
     19 C          62.5334   87.1151   17.6307 C.ar    1  UNL1       -0.0001
     20 C          63.3831   87.8647   16.6479 C.ar    1  UNL1       -0.0012
     21 C          63.9136   87.1676   15.4303 C.ar    1  UNL1        0.0135
     22 C          64.4288   83.5557   14.0269 C.3     1  UNL1        0.2525
     23 O          64.1249   85.0238   13.9779 O.3     1  UNL1       -0.4717
@<TRIPOS>BOND
     1    22    23    1
     2    23    16    1
     3    16    17   ar
     4    17    18   ar
     5    18    19   ar
     6    19    20   ar
     7    20    21   ar
     8    21    15    1
     9    15     1    1
    10     1     9    1
    11     9    10   ar
    12    10    11   ar
    13    11    12   ar
    14    12    13   ar
    15    13    14   ar
    16     1     2    1
    17     2     3    1
    18     3     4    1
    19     4     5    1
    20     5     6    1
    21     6     7    1
    22    21    16   ar
    23    14     9   ar
    24     7     2    1
    25     5     8    1
