@<TRIPOS>MOLECULE
*****
 34 38 0 0 0
SMALL
GASTEIGER

@<TRIPOS>ATOM
      1 N          62.5178   87.2973   11.8938 N.3     1  UNL1       -0.2641
      2 C          62.8465   88.7290   11.5903 C.3     1  UNL1        0.0981
      3 C          62.4388   89.3301   10.2779 C.3     1  UNL1        0.0224
      4 C          62.7675   90.7618    9.9744 C.3     1  UNL1        0.0065
      5 C          63.5040   91.5924   10.9832 C.3     1  UNL1        0.0277
      6 C          63.9117   90.9913   12.2956 C.ar    1  UNL1       -0.0073
      7 C          64.6482   91.8218   13.3045 C.ar    1  UNL1       -0.0015
      8 C          65.0559   91.2207   14.6168 C.ar    1  UNL1        0.0203
      9 C          64.7272   89.7890   14.9204 C.ar    1  UNL1        0.0985
     10 N          63.9907   88.9584   13.9115 N.ar    1  UNL1       -0.2471
     11 C          63.5829   89.5595   12.5991 C.ar    1  UNL1        0.0695
     12 C          61.3717   86.6267   11.1961 C.3     1  UNL1        0.0994
     13 C          61.8980   85.0420    7.0174 C.ar    1  UNL1       -0.0066
     14 C          60.6140   85.7109    7.4097 C.ar    1  UNL1       -0.0032
     15 C          60.4386   86.2391    8.8026 C.ar    1  UNL1       -0.0032
     16 C          61.5471   86.0985    9.8032 C.ar    1  UNL1       -0.0062
     17 C          62.8312   85.4297    9.4109 C.ar    1  UNL1       -0.0032
     18 C          63.0067   84.9014    8.0180 C.ar    1  UNL1       -0.0032
     19 N          60.9636   83.7478    4.9675 N.3     1  UNL1       -0.3175
     20 C          62.0734   84.5138    5.6245 C.3     1  UNL1        0.0922
     21 H          61.2527   83.4666    4.0306 H       1  UNL1        0.1192
     22 H          60.1340   84.3379    4.9046 H       1  UNL1        0.1192
     23 C          63.3351   86.5361   12.8951 C.3     1  UNL1        0.0888
     24 C          62.9816   85.1169   13.2284 C.3     1  UNL1        0.0748
     25 C          63.2268   84.0278   12.2266 C.3     1  UNL1        0.0432
     26 C          62.8733   82.6086   12.5599 C.ar    1  UNL1       -0.0234
     27 C          63.1186   81.5195   11.5581 C.ar    1  UNL1       -0.0045
     28 C          62.7651   80.1004   11.8915 C.ar    1  UNL1       -0.0003
     29 C          62.1663   79.7705   13.2266 C.ar    1  UNL1       -0.0003
     30 C          61.9211   80.8596   14.2284 C.ar    1  UNL1       -0.0032
     31 C          62.2746   82.2787   13.8951 C.ar    1  UNL1       -0.0103
     32 C          62.0293   83.3679   14.8969 C.3     1  UNL1        0.0953
     33 N          62.3829   84.7870   14.5635 N.3     1  UNL1       -0.2934
     34 H          63.0494   85.0981   15.2702 H       1  UNL1        0.1236
@<TRIPOS>BOND
     1    19    20    1
     2    20    13    1
     3    13    14   ar
     4    14    15   ar
     5    15    16   ar
     6    16    12    1
     7    12     1    1
     8     1    23    1
     9    24    23    1
    10    24    25    1
    11    25    26    1
    12    26    27   ar
    13    27    28   ar
    14    28    29   ar
    15    29    30   ar
    16    30    31   ar
    17    31    32    1
    18    32    33    1
    19     2     1    1
    20     2     3    1
    21     3     4    1
    22     4     5    1
    23     5     6    1
    24     6     7   ar
    25     7     8   ar
    26     8     9   ar
    27     9    10   ar
    28    10    11   ar
    29    16    17   ar
    30    17    18   ar
    31    18    13   ar
    32    33    24    1
    33    11     2    1
    34    31    26   ar
    35    11     6   ar
    36    19    21    1
    37    19    22    1
    38    33    34    1
@<TRIPOS>MOLECULE
*****
 34 38 0 0 0
SMALL
GASTEIGER

@<TRIPOS>ATOM
      1 N          63.5678   89.7002   13.3672 N.3     1  UNL1       -0.2641
      2 C          64.2387   90.8613   12.6951 C.3     1  UNL1        0.0981
      3 C          63.9858   91.1352   11.2422 C.3     1  UNL1        0.0224
      4 C          64.6567   92.2963   10.5700 C.3     1  UNL1        0.0065
      5 C          65.5804   93.1834   11.3507 C.3     1  UNL1        0.0277
      6 C          65.8333   92.9095   12.8036 C.ar    1  UNL1       -0.0073
      7 C          66.7571   93.7967   13.5844 C.ar    1  UNL1       -0.0015
      8 C          67.0100   93.5228   15.0373 C.ar    1  UNL1        0.0203
      9 C          66.3391   92.3617   15.7095 C.ar    1  UNL1        0.0985
     10 N          65.4154   91.4746   14.9288 N.ar    1  UNL1       -0.2471
     11 C          65.1624   91.7485   13.4758 C.ar    1  UNL1        0.0695
     12 C          62.0916   89.4898   13.2042 C.3     1  UNL1        0.0994
     13 C          60.3357   88.9526    9.0958 C.ar    1  UNL1       -0.0066
     14 C          61.3694   87.9904    9.6014 C.ar    1  UNL1       -0.0032
     15 C          61.9547   88.1695   10.9708 C.ar    1  UNL1       -0.0032
     16 C          61.5063   89.3107   11.8347 C.ar    1  UNL1       -0.0062
     17 C          60.4726   90.2730   11.3292 C.ar    1  UNL1       -0.0032
     18 C          59.8873   90.0939    9.9598 C.ar    1  UNL1       -0.0032
     19 N          58.6836   87.7446    7.4954 N.3     1  UNL1       -0.3175
     20 C          59.7505   88.7735    7.7264 C.3     1  UNL1        0.0922
     21 H          58.4033   87.7596    6.5148 H       1  UNL1        0.1192
     22 H          57.8765   87.9539    8.0829 H       1  UNL1        0.1192
     23 C          64.3731   88.7496   14.2025 C.3     1  UNL1        0.0888
     24 C          63.9459   87.3174   14.3312 C.3     1  UNL1        0.0748
     25 C          63.7455   86.4812   13.1022 C.3     1  UNL1        0.0432
     26 C          63.3183   85.0490   13.2309 C.ar    1  UNL1       -0.0234
     27 C          63.1179   84.2128   12.0018 C.ar    1  UNL1       -0.0045
     28 C          62.6908   82.7807   12.1306 C.ar    1  UNL1       -0.0003
     29 C          62.4641   82.1848   13.4883 C.ar    1  UNL1       -0.0003
     30 C          62.6645   83.0210   14.7174 C.ar    1  UNL1       -0.0032
     31 C          63.0916   84.4531   14.5886 C.ar    1  UNL1       -0.0103
     32 C          63.2921   85.2894   15.8177 C.3     1  UNL1        0.0953
     33 N          63.7192   86.7215   15.6890 N.3     1  UNL1       -0.2934
     34 H          64.5962   86.8144   16.2015 H       1  UNL1        0.1236
@<TRIPOS>BOND
     1    19    20    1
     2    20    13    1
     3    13    14   ar
     4    14    15   ar
     5    15    16   ar
     6    16    12    1
     7    12     1    1
     8     1    23    1
     9    24    23    1
    10    24    25    1
    11    25    26    1
    12    26    27   ar
    13    27    28   ar
    14    28    29   ar
    15    29    30   ar
    16    30    31   ar
    17    31    32    1
    18    32    33    1
    19     2     1    1
    20     2     3    1
    21     3     4    1
    22     4     5    1
    23     5     6    1
    24     6     7   ar
    25     7     8   ar
    26     8     9   ar
    27     9    10   ar
    28    10    11   ar
    29    16    17   ar
    30    17    18   ar
    31    18    13   ar
    32    33    24    1
    33    11     2    1
    34    31    26   ar
    35    11     6   ar
    36    19    21    1
    37    19    22    1
    38    33    34    1
@<TRIPOS>MOLECULE
*****
 34 38 0 0 0
SMALL
GASTEIGER

@<TRIPOS>ATOM
      1 N          61.7355   87.1840   11.5427 N.3     1  UNL1       -0.2641
      2 C          62.3991   86.0047   10.8954 C.3     1  UNL1        0.0981
      3 C          62.6471   86.0023    9.4161 C.3     1  UNL1        0.0224
      4 C          63.3107   84.8231    8.7687 C.3     1  UNL1        0.0065
      5 C          63.7263   83.6462    9.6007 C.3     1  UNL1        0.0277
      6 C          63.4783   83.6486   11.0801 C.ar    1  UNL1       -0.0073
      7 C          63.8939   82.4717   11.9122 C.ar    1  UNL1       -0.0015
      8 C          63.6459   82.4741   13.3915 C.ar    1  UNL1        0.0203
      9 C          62.9823   83.6534   14.0388 C.ar    1  UNL1        0.0985
     10 N          62.5667   84.8302   13.2068 N.ar    1  UNL1       -0.2471
     11 C          62.8147   84.8279   11.7274 C.ar    1  UNL1        0.0695
     12 C          60.3221   87.5380   11.1867 C.3     1  UNL1        0.0994
     13 C          59.3827   89.2390    7.1278 C.ar    1  UNL1       -0.0066
     14 C          59.9441   90.1245    8.2005 C.ar    1  UNL1       -0.0032
     15 C          60.2573   89.5575    9.5534 C.ar    1  UNL1       -0.0032
     16 C          60.0089   88.1050    9.8337 C.ar    1  UNL1       -0.0062
     17 C          59.4474   87.2194    8.7610 C.ar    1  UNL1       -0.0032
     18 C          59.1343   87.7864    7.4081 C.ar    1  UNL1       -0.0032
     19 N          58.9430   91.2897    5.5945 N.3     1  UNL1       -0.3175
     20 C          59.0695   89.8060    5.7749 C.3     1  UNL1        0.0922
     21 H          58.7293   91.4966    4.6188 H       1  UNL1        0.1192
     22 H          59.8210   91.7398    5.8531 H       1  UNL1        0.1192
     23 C          62.4854   88.0092   12.5460 C.3     1  UNL1        0.0888
     24 C          63.1514   89.2842   12.1209 C.3     1  UNL1        0.0748
     25 C          64.0435   90.0193   13.0768 C.3     1  UNL1        0.0432
     26 C          64.7095   91.2944   12.6516 C.ar    1  UNL1       -0.0234
     27 C          65.6016   92.0295   13.6075 C.ar    1  UNL1       -0.0045
     28 C          66.2675   93.3045   13.1823 C.ar    1  UNL1       -0.0003
     29 C          66.0415   93.8443   11.8012 C.ar    1  UNL1       -0.0003
     30 C          65.1494   93.1092   10.8453 C.ar    1  UNL1       -0.0032
     31 C          64.4834   91.8343   11.2705 C.ar    1  UNL1       -0.0103
     32 C          63.5913   91.0991   10.3146 C.3     1  UNL1        0.0953
     33 N          62.9253   89.8241   10.7398 N.3     1  UNL1       -0.2934
     34 H          63.2296   89.1012   10.0876 H       1  UNL1        0.1236
@<TRIPOS>BOND
     1    19    20    1
     2    20    13    1
     3    13    14   ar
     4    14    15   ar
     5    15    16   ar
     6    16    12    1
     7    12     1    1
     8     1    23    1
     9    24    23    1
    10    24    25    1
    11    25    26    1
    12    26    27   ar
    13    27    28   ar
    14    28    29   ar
    15    29    30   ar
    16    30    31   ar
    17    31    32    1
    18    32    33    1
    19     2     1    1
    20     2     3    1
    21     3     4    1
    22     4     5    1
    23     5     6    1
    24     6     7   ar
    25     7     8   ar
    26     8     9   ar
    27     9    10   ar
    28    10    11   ar
    29    16    17   ar
    30    17    18   ar
    31    18    13   ar
    32    33    24    1
    33    11     2    1
    34    31    26   ar
    35    11     6   ar
    36    19    21    1
    37    19    22    1
    38    33    34    1
@<TRIPOS>MOLECULE
*****
 34 38 0 0 0
SMALL
GASTEIGER

@<TRIPOS>ATOM
      1 N          62.8237   89.4922   13.0476 N.3     1  UNL1       -0.2641
      2 C          63.4841   90.2754   14.1432 C.3     1  UNL1        0.0981
      3 C          63.1183   90.0176   15.5749 C.3     1  UNL1        0.0224
      4 C          63.7788   90.8008   16.6705 C.3     1  UNL1        0.0065
      5 C          64.8050   91.8419   16.3344 C.3     1  UNL1        0.0277
      6 C          65.1708   92.0997   14.9028 C.ar    1  UNL1       -0.0073
      7 C          66.1971   93.1408   14.5666 C.ar    1  UNL1       -0.0015
      8 C          66.5629   93.3986   13.1350 C.ar    1  UNL1        0.0203
      9 C          65.9024   92.6154   12.0394 C.ar    1  UNL1        0.0985
     10 N          64.8762   91.5743   12.3754 N.ar    1  UNL1       -0.2471
     11 C          64.5103   91.3165   13.8072 C.ar    1  UNL1        0.0695
     12 C          61.4384   89.8519   12.5987 C.3     1  UNL1        0.0994
     13 C          59.8245   88.1994    8.7367 C.ar    1  UNL1       -0.0066
     14 C          59.7947   87.3626    9.9812 C.ar    1  UNL1       -0.0032
     15 C          60.3326   87.9134   11.2685 C.ar    1  UNL1       -0.0032
     16 C          60.9004   89.3011   11.3114 C.ar    1  UNL1       -0.0062
     17 C          60.9303   90.1380   10.0669 C.ar    1  UNL1       -0.0032
     18 C          60.3923   89.5872    8.7795 C.ar    1  UNL1       -0.0032
     19 N          58.4355   86.4134    7.4597 N.3     1  UNL1       -0.3175
     20 C          59.2865   87.6486    7.4494 C.3     1  UNL1        0.0922
     21 H          58.1593   86.1828    6.5052 H       1  UNL1        0.1192
     22 H          57.6022   86.5793    8.0241 H       1  UNL1        0.1192
     23 C          63.5485   88.3492   12.4010 C.3     1  UNL1        0.0888
     24 C          63.4649   86.9750   12.9965 C.3     1  UNL1        0.0748
     25 C          63.0348   85.8149   12.1485 C.3     1  UNL1        0.0432
     26 C          62.9513   84.4407   12.7440 C.ar    1  UNL1       -0.0234
     27 C          62.5212   83.2807   11.8960 C.ar    1  UNL1       -0.0045
     28 C          62.4376   81.9065   12.4915 C.ar    1  UNL1       -0.0003
     29 C          62.7842   81.6924   13.9352 C.ar    1  UNL1       -0.0003
     30 C          63.2143   82.8525   14.7832 C.ar    1  UNL1       -0.0032
     31 C          63.2979   84.2266   14.1877 C.ar    1  UNL1       -0.0103
     32 C          63.7280   85.3868   15.0357 C.3     1  UNL1        0.0953
     33 N          63.8115   86.7609   14.4401 N.3     1  UNL1       -0.2934
     34 H          64.7738   87.0766   14.5619 H       1  UNL1        0.1236
@<TRIPOS>BOND
     1    19    20    1
     2    20    13    1
     3    13    14   ar
     4    14    15   ar
     5    15    16   ar
     6    16    12    1
     7    12     1    1
     8     1    23    1
     9    24    23    1
    10    24    25    1
    11    25    26    1
    12    26    27   ar
    13    27    28   ar
    14    28    29   ar
    15    29    30   ar
    16    30    31   ar
    17    31    32    1
    18    32    33    1
    19     2     1    1
    20     2     3    1
    21     3     4    1
    22     4     5    1
    23     5     6    1
    24     6     7   ar
    25     7     8   ar
    26     8     9   ar
    27     9    10   ar
    28    10    11   ar
    29    16    17   ar
    30    17    18   ar
    31    18    13   ar
    32    33    24    1
    33    11     2    1
    34    31    26   ar
    35    11     6   ar
    36    19    21    1
    37    19    22    1
    38    33    34    1
@<TRIPOS>MOLECULE
*****
 34 38 0 0 0
SMALL
GASTEIGER

@<TRIPOS>ATOM
      1 N          62.0028   87.4969   11.1824 N.3     1  UNL1       -0.2641
      2 C          61.0848   87.2193   10.0290 C.3     1  UNL1        0.0981
      3 C          59.7172   87.8343    9.9941 C.3     1  UNL1        0.0224
      4 C          58.7992   87.5567    8.8407 C.3     1  UNL1        0.0065
      5 C          59.2489   86.6640    7.7222 C.3     1  UNL1        0.0277
      6 C          60.6165   86.0490    7.7572 C.ar    1  UNL1       -0.0073
      7 C          61.0663   85.1564    6.6387 C.ar    1  UNL1       -0.0015
      8 C          62.4340   84.5414    6.6736 C.ar    1  UNL1        0.0203
      9 C          63.3519   84.8190    7.8270 C.ar    1  UNL1        0.0985
     10 N          62.9022   85.7116    8.9454 N.ar    1  UNL1       -0.2471
     11 C          61.5345   86.3267    8.9105 C.ar    1  UNL1        0.0695
     12 C          61.7943   88.7166   12.0301 C.3     1  UNL1        0.0994
     13 C          64.8412   92.0279   11.9964 C.ar    1  UNL1       -0.0066
     14 C          64.0562   91.7184   10.7563 C.ar    1  UNL1       -0.0032
     15 C          63.0406   90.6146   10.7675 C.ar    1  UNL1       -0.0032
     16 C          62.8099   89.8204   12.0189 C.ar    1  UNL1       -0.0062
     17 C          63.5949   90.1299   13.2591 C.ar    1  UNL1       -0.0032
     18 C          64.6106   91.2337   13.2478 C.ar    1  UNL1       -0.0032
     19 N          67.1968   92.9245   12.6268 N.3     1  UNL1       -0.3175
     20 C          65.8569   93.1317   11.9851 C.3     1  UNL1        0.0922
     21 H          67.7565   93.7713   12.5265 H       1  UNL1        0.1192
     22 H          67.6743   92.1456   12.1732 H       1  UNL1        0.1192
     23 C          63.1292   86.5548   11.4880 C.3     1  UNL1        0.0888
     24 C          62.8565   85.2692   12.2111 C.3     1  UNL1        0.0748
     25 C          63.0090   83.9595   11.4960 C.3     1  UNL1        0.0432
     26 C          62.7363   82.6738   12.2192 C.ar    1  UNL1       -0.0234
     27 C          62.8887   81.3642   11.5040 C.ar    1  UNL1       -0.0045
     28 C          62.6160   80.0786   12.2272 C.ar    1  UNL1       -0.0003
     29 C          62.1909   80.1028   13.6655 C.ar    1  UNL1       -0.0003
     30 C          62.0384   81.4125   14.3806 C.ar    1  UNL1       -0.0032
     31 C          62.3111   82.6980   13.6574 C.ar    1  UNL1       -0.0103
     32 C          62.1587   84.0078   14.3726 C.3     1  UNL1        0.0953
     33 N          62.4314   85.2933   13.6494 N.3     1  UNL1       -0.2934
     34 H          63.1693   85.7712   14.1666 H       1  UNL1        0.1236
@<TRIPOS>BOND
     1    19    20    1
     2    20    13    1
     3    13    14   ar
     4    14    15   ar
     5    15    16   ar
     6    16    12    1
     7    12     1    1
     8     1    23    1
     9    24    23    1
    10    24    25    1
    11    25    26    1
    12    26    27   ar
    13    27    28   ar
    14    28    29   ar
    15    29    30   ar
    16    30    31   ar
    17    31    32    1
    18    32    33    1
    19     2     1    1
    20     2     3    1
    21     3     4    1
    22     4     5    1
    23     5     6    1
    24     6     7   ar
    25     7     8   ar
    26     8     9   ar
    27     9    10   ar
    28    10    11   ar
    29    16    17   ar
    30    17    18   ar
    31    18    13   ar
    32    33    24    1
    33    11     2    1
    34    31    26   ar
    35    11     6   ar
    36    19    21    1
    37    19    22    1
    38    33    34    1
@<TRIPOS>MOLECULE
*****
 34 38 0 0 0
SMALL
GASTEIGER

@<TRIPOS>ATOM
      1 N          63.8584   89.8950   13.6663 N.3     1  UNL1       -0.2641
      2 C          64.5057   91.0599   12.9778 C.3     1  UNL1        0.0981
      3 C          64.2099   91.3364   11.5335 C.3     1  UNL1        0.0224
      4 C          64.8571   92.5013   10.8450 C.3     1  UNL1        0.0065
      5 C          65.8002   93.3898   11.6007 C.3     1  UNL1        0.0277
      6 C          66.0960   93.1133   13.0450 C.ar    1  UNL1       -0.0073
      7 C          67.0391   94.0018   13.8009 C.ar    1  UNL1       -0.0015
      8 C          67.3348   93.7254   15.2452 C.ar    1  UNL1        0.0203
      9 C          66.6876   92.5604   15.9337 C.ar    1  UNL1        0.0985
     10 N          65.7446   91.6720   15.1779 N.ar    1  UNL1       -0.2471
     11 C          65.4487   91.9484   13.7335 C.ar    1  UNL1        0.0695
     12 C          64.6988   88.9096   14.4230 C.3     1  UNL1        0.0994
     13 C          63.0641   84.8287   15.3843 C.ar    1  UNL1       -0.0066
     14 C          63.5674   85.1289   14.0035 C.ar    1  UNL1       -0.0032
     15 C          64.1123   86.4892   13.6831 C.ar    1  UNL1       -0.0032
     16 C          64.1539   87.5493   14.7434 C.ar    1  UNL1       -0.0062
     17 C          63.6506   87.2492   16.1243 C.ar    1  UNL1       -0.0032
     18 C          63.1057   85.8889   16.4447 C.ar    1  UNL1       -0.0032
     19 N          62.8492   82.3013   14.8220 N.3     1  UNL1       -0.3175
     20 C          62.5192   83.4684   15.7047 C.3     1  UNL1        0.0922
     21 H          62.3985   81.4617   15.1859 H       1  UNL1        0.1192
     22 H          63.8598   82.1639   14.8037 H       1  UNL1        0.1192
     23 C          62.3708   89.7155   13.5980 C.3     1  UNL1        0.0888
     24 C          61.7106   89.4190   12.2841 C.3     1  UNL1        0.0748
     25 C          61.9815   88.1199   11.5850 C.3     1  UNL1        0.0432
     26 C          61.3213   87.8233   10.2711 C.ar    1  UNL1       -0.0234
     27 C          61.5922   86.5242    9.5719 C.ar    1  UNL1       -0.0045
     28 C          60.9320   86.2277    8.2581 C.ar    1  UNL1       -0.0003
     29 C          60.0009   87.2304    7.6434 C.ar    1  UNL1       -0.0003
     30 C          59.7300   88.5295    8.3426 C.ar    1  UNL1       -0.0032
     31 C          60.3902   88.8259    9.6564 C.ar    1  UNL1       -0.0103
     32 C          60.1193   90.1251   10.3557 C.3     1  UNL1        0.0953
     33 N          60.7795   90.4216   11.6695 N.3     1  UNL1       -0.2934
     34 H          60.0322   90.5822   12.3449 H       1  UNL1        0.1236
@<TRIPOS>BOND
     1    19    20    1
     2    20    13    1
     3    13    14   ar
     4    14    15   ar
     5    15    16   ar
     6    16    12    1
     7    12     1    1
     8     1    23    1
     9    24    23    1
    10    24    25    1
    11    25    26    1
    12    26    27   ar
    13    27    28   ar
    14    28    29   ar
    15    29    30   ar
    16    30    31   ar
    17    31    32    1
    18    32    33    1
    19     2     1    1
    20     2     3    1
    21     3     4    1
    22     4     5    1
    23     5     6    1
    24     6     7   ar
    25     7     8   ar
    26     8     9   ar
    27     9    10   ar
    28    10    11   ar
    29    16    17   ar
    30    17    18   ar
    31    18    13   ar
    32    33    24    1
    33    11     2    1
    34    31    26   ar
    35    11     6   ar
    36    19    21    1
    37    19    22    1
    38    33    34    1
@<TRIPOS>MOLECULE
*****
 34 38 0 0 0
SMALL
GASTEIGER

@<TRIPOS>ATOM
      1 N          63.5478   88.9139   14.2656 N.3     1  UNL1       -0.2641
      2 C          63.3521   87.9522   15.4000 C.3     1  UNL1        0.0981
      3 C          62.9917   88.4638   16.7632 C.3     1  UNL1        0.0224
      4 C          62.7960   87.5021   17.8976 C.3     1  UNL1        0.0065
      5 C          62.9608   86.0289   17.6688 C.3     1  UNL1        0.0277
      6 C          63.3212   85.5173   16.3056 C.ar    1  UNL1       -0.0073
      7 C          63.4860   84.0440   16.0768 C.ar    1  UNL1       -0.0015
      8 C          63.8464   83.5324   14.7136 C.ar    1  UNL1        0.0203
      9 C          64.0421   84.4941   13.5792 C.ar    1  UNL1        0.0985
     10 N          63.8774   85.9673   13.8080 N.ar    1  UNL1       -0.2471
     11 C          63.5169   86.4790   15.1712 C.ar    1  UNL1        0.0695
     12 C          63.4337   90.3901   14.5056 C.3     1  UNL1        0.0994
     13 C          67.1086   92.8047   15.4621 C.ar    1  UNL1       -0.0066
     14 C          66.9790   92.1331   14.1272 C.ar    1  UNL1       -0.0032
     15 C          65.7540   91.3282   13.8084 C.ar    1  UNL1       -0.0032
     16 C          64.6587   91.1950   14.8244 C.ar    1  UNL1       -0.0062
     17 C          64.7883   91.8667   16.1594 C.ar    1  UNL1       -0.0032
     18 C          66.0132   92.6716   16.4783 C.ar    1  UNL1       -0.0032
     19 N          69.6289   93.3112   15.0858 N.3     1  UNL1       -0.3175
     20 C          68.3336   93.6096   15.7809 C.3     1  UNL1        0.0922
     21 H          70.3499   93.9499   15.4216 H       1  UNL1        0.1192
     22 H          69.5104   93.4309   14.0798 H       1  UNL1        0.1192
     23 C          63.8576   88.3993   12.8911 C.3     1  UNL1        0.0888
     24 C          62.8637   88.5777   11.7818 C.3     1  UNL1        0.0748
     25 C          62.3079   87.3785   11.0727 C.3     1  UNL1        0.0432
     26 C          61.3140   87.5568    9.9634 C.ar    1  UNL1       -0.0234
     27 C          60.7583   86.3576    9.2542 C.ar    1  UNL1       -0.0045
     28 C          59.7645   86.5360    8.1450 C.ar    1  UNL1       -0.0003
     29 C          59.3264   87.9137    7.7449 C.ar    1  UNL1       -0.0003
     30 C          59.8821   89.1130    8.4541 C.ar    1  UNL1       -0.0032
     31 C          60.8759   88.9345    9.5633 C.ar    1  UNL1       -0.0103
     32 C          61.4317   90.1338   10.2725 C.3     1  UNL1        0.0953
     33 N          62.4256   89.9554   11.3817 N.3     1  UNL1       -0.2934
     34 H          62.0211   90.3884   12.2119 H       1  UNL1        0.1236
@<TRIPOS>BOND
     1    19    20    1
     2    20    13    1
     3    13    14   ar
     4    14    15   ar
     5    15    16   ar
     6    16    12    1
     7    12     1    1
     8     1    23    1
     9    24    23    1
    10    24    25    1
    11    25    26    1
    12    26    27   ar
    13    27    28   ar
    14    28    29   ar
    15    29    30   ar
    16    30    31   ar
    17    31    32    1
    18    32    33    1
    19     2     1    1
    20     2     3    1
    21     3     4    1
    22     4     5    1
    23     5     6    1
    24     6     7   ar
    25     7     8   ar
    26     8     9   ar
    27     9    10   ar
    28    10    11   ar
    29    16    17   ar
    30    17    18   ar
    31    18    13   ar
    32    33    24    1
    33    11     2    1
    34    31    26   ar
    35    11     6   ar
    36    19    21    1
    37    19    22    1
    38    33    34    1
@<TRIPOS>MOLECULE
*****
 34 38 0 0 0
SMALL
GASTEIGER

@<TRIPOS>ATOM
      1 N          63.0937   85.3953   12.9184 N.3     1  UNL1       -0.2641
      2 C          63.3242   84.1730   12.0800 C.3     1  UNL1        0.0981
      3 C          63.9834   84.2971   10.7384 C.3     1  UNL1        0.0224
      4 C          64.2139   83.0748    9.9000 C.3     1  UNL1        0.0065
      5 C          63.7851   81.7284   10.4032 C.3     1  UNL1        0.0277
      6 C          63.1258   81.6043   11.7448 C.ar    1  UNL1       -0.0073
      7 C          62.6969   80.2578   12.2481 C.ar    1  UNL1       -0.0015
      8 C          62.0377   80.1337   13.5896 C.ar    1  UNL1        0.0203
      9 C          61.8072   81.3560   14.4281 C.ar    1  UNL1        0.0985
     10 N          62.2361   82.7024   13.9249 N.ar    1  UNL1       -0.2471
     11 C          62.8954   82.8266   12.5832 C.ar    1  UNL1        0.0695
     12 C          64.2059   85.9487   13.7592 C.3     1  UNL1        0.0994
     13 C          63.6316   89.8156   15.9879 C.ar    1  UNL1       -0.0066
     14 C          64.1053   89.8334   14.5648 C.ar    1  UNL1       -0.0032
     15 C          64.2967   88.5444   13.8219 C.ar    1  UNL1       -0.0032
     16 C          64.0144   87.2376   14.5021 C.ar    1  UNL1       -0.0062
     17 C          63.5406   87.2198   15.9252 C.ar    1  UNL1       -0.0032
     18 C          63.3492   88.5088   16.6681 C.ar    1  UNL1       -0.0032
     19 N          64.3373   92.2732   16.4487 N.3     1  UNL1       -0.3175
     20 C          63.4401   91.1045   16.7308 C.3     1  UNL1        0.0922
     21 H          64.0668   93.0597   17.0391 H       1  UNL1        0.1192
     22 H          64.2510   92.5390   15.4677 H       1  UNL1        0.1192
     23 C          61.7512   86.0641   12.9161 C.3     1  UNL1        0.0888
     24 C          61.3380   86.9129   11.7503 C.3     1  UNL1        0.0748
     25 C          60.7523   86.2727   10.5268 C.3     1  UNL1        0.0432
     26 C          60.3392   87.1214    9.3610 C.ar    1  UNL1       -0.0234
     27 C          59.7534   86.4812    8.1375 C.ar    1  UNL1       -0.0045
     28 C          59.3404   87.3299    6.9717 C.ar    1  UNL1       -0.0003
     29 C          59.5130   88.8188    7.0295 C.ar    1  UNL1       -0.0003
     30 C          60.0987   89.4590    8.2530 C.ar    1  UNL1       -0.0032
     31 C          60.5118   88.6103    9.4187 C.ar    1  UNL1       -0.0103
     32 C          61.0976   89.2505   10.6423 C.3     1  UNL1        0.0953
     33 N          61.5107   88.4018   11.8081 N.3     1  UNL1       -0.2934
     34 H          60.9778   88.7289   12.6139 H       1  UNL1        0.1236
@<TRIPOS>BOND
     1    19    20    1
     2    20    13    1
     3    13    14   ar
     4    14    15   ar
     5    15    16   ar
     6    16    12    1
     7    12     1    1
     8     1    23    1
     9    24    23    1
    10    24    25    1
    11    25    26    1
    12    26    27   ar
    13    27    28   ar
    14    28    29   ar
    15    29    30   ar
    16    30    31   ar
    17    31    32    1
    18    32    33    1
    19     2     1    1
    20     2     3    1
    21     3     4    1
    22     4     5    1
    23     5     6    1
    24     6     7   ar
    25     7     8   ar
    26     8     9   ar
    27     9    10   ar
    28    10    11   ar
    29    16    17   ar
    30    17    18   ar
    31    18    13   ar
    32    33    24    1
    33    11     2    1
    34    31    26   ar
    35    11     6   ar
    36    19    21    1
    37    19    22    1
    38    33    34    1
@<TRIPOS>MOLECULE
*****
 34 38 0 0 0
SMALL
GASTEIGER

@<TRIPOS>ATOM
      1 N          63.6663   88.9604   14.0593 N.3     1  UNL1       -0.2641
      2 C          63.4412   88.1073   15.2724 C.3     1  UNL1        0.0981
      3 C          63.0774   88.7446   16.5806 C.3     1  UNL1        0.0224
      4 C          62.8523   87.8915   17.7936 C.3     1  UNL1        0.0065
      5 C          62.9910   86.4010   17.6984 C.3     1  UNL1        0.0277
      6 C          63.3548   85.7636   16.3903 C.ar    1  UNL1       -0.0073
      7 C          63.4934   84.2730   16.2951 C.ar    1  UNL1       -0.0015
      8 C          63.8572   83.6356   14.9869 C.ar    1  UNL1        0.0203
      9 C          64.0823   84.4888   13.7738 C.ar    1  UNL1        0.0985
     10 N          63.9436   85.9793   13.8690 N.ar    1  UNL1       -0.2471
     11 C          63.5798   86.6167   15.1772 C.ar    1  UNL1        0.0695
     12 C          63.7561   90.4513   14.1972 C.3     1  UNL1        0.0994
     13 C          66.1993   92.8387   11.2678 C.ar    1  UNL1       -0.0066
     14 C          64.8351   92.3483   10.8825 C.ar    1  UNL1       -0.0032
     15 C          64.0207   91.5525   11.8589 C.ar    1  UNL1       -0.0032
     16 C          64.5705   91.2471   13.2207 C.ar    1  UNL1       -0.0062
     17 C          65.9347   91.7375   13.6061 C.ar    1  UNL1       -0.0032
     18 C          66.7491   92.5333   12.6296 C.ar    1  UNL1       -0.0032
     19 N          68.4057   93.1968    9.9434 N.3     1  UNL1       -0.3175
     20 C          67.0137   93.6345   10.2913 C.3     1  UNL1        0.0922
     21 H          68.8089   93.8487    9.2705 H       1  UNL1        0.1192
     22 H          68.3763   92.2622    9.5358 H       1  UNL1        0.1192
     23 C          63.8016   88.3226   12.7085 C.3     1  UNL1        0.0888
     24 C          62.6110   88.2285   11.8008 C.3     1  UNL1        0.0748
     25 C          62.5939   87.2229   10.6880 C.3     1  UNL1        0.0432
     26 C          61.4033   87.1287    9.7804 C.ar    1  UNL1       -0.0234
     27 C          61.3862   86.1231    8.6676 C.ar    1  UNL1       -0.0045
     28 C          60.1957   86.0289    7.7601 C.ar    1  UNL1       -0.0003
     29 C          59.0222   86.9404    7.9654 C.ar    1  UNL1       -0.0003
     30 C          59.0393   87.9460    9.0782 C.ar    1  UNL1       -0.0032
     31 C          60.2298   88.0402    9.9857 C.ar    1  UNL1       -0.0103
     32 C          60.2470   89.0458   11.0986 C.3     1  UNL1        0.0953
     33 N          61.4375   89.1400   12.0061 N.3     1  UNL1       -0.2934
     34 H          61.0989   88.9751   12.9541 H       1  UNL1        0.1236
@<TRIPOS>BOND
     1    19    20    1
     2    20    13    1
     3    13    14   ar
     4    14    15   ar
     5    15    16   ar
     6    16    12    1
     7    12     1    1
     8     1    23    1
     9    24    23    1
    10    24    25    1
    11    25    26    1
    12    26    27   ar
    13    27    28   ar
    14    28    29   ar
    15    29    30   ar
    16    30    31   ar
    17    31    32    1
    18    32    33    1
    19     2     1    1
    20     2     3    1
    21     3     4    1
    22     4     5    1
    23     5     6    1
    24     6     7   ar
    25     7     8   ar
    26     8     9   ar
    27     9    10   ar
    28    10    11   ar
    29    16    17   ar
    30    17    18   ar
    31    18    13   ar
    32    33    24    1
    33    11     2    1
    34    31    26   ar
    35    11     6   ar
    36    19    21    1
    37    19    22    1
    38    33    34    1
