@<TRIPOS>MOLECULE
*****
 35 40 0 0 0
SMALL
GASTEIGER

@<TRIPOS>ATOM
      1 C          63.9464   90.8128   11.7684 C.ar    1  UNL1        0.1239
      2 N          64.4629   89.6383   12.5455 N.ar    1  UNL1       -0.2305
      3 C          63.4260   88.5558   12.4934 C.ar    1  UNL1        0.1014
      4 C          62.2685   89.0612   11.6841 C.ar    1  UNL1        0.1141
      5 C          60.9632   88.4314   11.2973 C.ar    1  UNL1        0.1432
      6 N          60.6416   87.0365   11.7454 N.pl3   1  UNL1       -0.3414
      7 N          59.9795   89.1966   10.4625 N.ar    1  UNL1       -0.2265
      8 C          60.3011   90.5915   10.0145 C.ar    1  UNL1        0.1193
      9 C          61.6065   91.2212   10.4013 C.ar    1  UNL1        0.1020
     10 N          62.5901   90.4561   11.2361 N.ar    1  UNL1       -0.2885
     11 H          61.2872   86.5343   12.2933 H       1  UNL1        0.1438
     12 H          59.7849   86.6232   11.4915 H       1  UNL1        0.1438
     13 C          63.5284   87.2049   13.1374 C.ar    1  UNL1        0.0207
     14 C          63.8633   87.0925   14.5952 C.ar    1  UNL1        0.0016
     15 C          63.9657   85.7417   15.2392 C.ar    1  UNL1        0.0015
     16 C          63.7333   84.5033   14.4254 C.ar    1  UNL1        0.0177
     17 C          63.8358   83.1524   15.0694 C.ar    1  UNL1        0.0030
     18 C          63.6034   81.9140   14.2556 C.ar    1  UNL1        0.0191
     19 C          63.2685   82.0264   12.7977 C.ar    1  UNL1        0.0812
     20 N          63.1661   83.3772   12.1538 N.ar    1  UNL1       -0.2454
     21 C          63.3985   84.6156   12.9676 C.ar    1  UNL1        0.0813
     22 C          63.2960   85.9665   12.3236 C.ar    1  UNL1        0.0206
     23 C          63.0361   80.7880   11.9839 C.ar    1  UNL1        0.0176
     24 C          63.1875   80.8315   10.4922 C.ar    1  UNL1        0.0015
     25 C          62.9551   79.5930    9.6784 C.ar    1  UNL1        0.0000
     26 C          62.5714   78.3111   10.3563 C.ar    1  UNL1        0.0000
     27 C          62.4200   78.2677   11.8480 C.ar    1  UNL1        0.0000
     28 C          62.6524   79.5061   12.6618 C.ar    1  UNL1        0.0015
     29 C          65.6708   93.9573   11.2660 C.3     1  UNL1        0.0584
     30 C          64.7567   93.1046   10.4369 C.3     1  UNL1        0.0235
     31 C          64.6607   92.1153   11.5603 C.3     1  UNL1        0.0599
     32 C          65.5748   92.9680   12.3894 C.3     1  UNL1        0.0235
     33 C          67.3838   95.3984    9.9473 C.3     1  UNL1        0.0896
     34 N          66.3851   95.2598   11.0578 N.3     1  UNL1       -0.2716
     35 C          66.1006   96.4237   11.9602 C.3     1  UNL1        0.0896
@<TRIPOS>BOND
     1    33    34    1
     2    34    35    1
     3    29    34    1
     4    29    30    1
     5    30    31    1
     6    31     1    1
     7     1     2   ar
     8     2     3   ar
     9     3    13    1
    10    13    14   ar
    11    14    15   ar
    12    15    16   ar
    13    16    17   ar
    14    17    18   ar
    15    18    19   ar
    16    19    23    1
    17    23    24   ar
    18    24    25   ar
    19    25    26   ar
    20    26    27   ar
    21    27    28   ar
    22    19    20   ar
    23    20    21   ar
    24    21    22   ar
    25     3     4   ar
    26     4     5   ar
    27     5     6    1
    28     5     7   ar
    29     7     8   ar
    30     8     9   ar
    31     9    10   ar
    32    31    32    1
    33    32    29    1
    34    10     1   ar
    35    22    13   ar
    36    10     4   ar
    37    21    16   ar
    38    28    23   ar
    39     6    11    1
    40     6    12    1
@<TRIPOS>MOLECULE
*****
 35 40 0 0 0
SMALL
GASTEIGER

@<TRIPOS>ATOM
      1 C          65.9916   93.5249   12.7634 C.ar    1  UNL1        0.1239
      2 N          65.0620   92.3753   13.0167 N.ar    1  UNL1       -0.2305
      3 C          65.3619   91.8285   14.3808 C.ar    1  UNL1        0.1014
      4 C          66.4769   92.6401   14.9707 C.ar    1  UNL1        0.1141
      5 C          67.1881   92.5599   16.2890 C.ar    1  UNL1        0.1432
      6 N          66.7989   91.5114   17.2885 N.pl3   1  UNL1       -0.3414
      7 N          68.2886   93.5282   16.6076 N.ar    1  UNL1       -0.2265
      8 C          68.6778   94.5767   15.6080 C.ar    1  UNL1        0.1193
      9 C          67.9665   94.6568   14.2897 C.ar    1  UNL1        0.1020
     10 N          66.8662   93.6886   13.9711 N.ar    1  UNL1       -0.2885
     11 H          66.0767   90.8759   17.0794 H       1  UNL1        0.1438
     12 H          67.2657   91.4588   18.1537 H       1  UNL1        0.1438
     13 C          64.6685   90.6728   15.0395 C.ar    1  UNL1        0.0207
     14 C          63.9294   90.8775   16.3286 C.ar    1  UNL1        0.0016
     15 C          63.2360   89.7219   16.9872 C.ar    1  UNL1        0.0015
     16 C          63.2819   88.3616   16.3568 C.ar    1  UNL1        0.0177
     17 C          62.5885   87.2060   17.0155 C.ar    1  UNL1        0.0030
     18 C          62.6344   85.8456   16.3851 C.ar    1  UNL1        0.0191
     19 C          63.3736   85.6410   15.0960 C.ar    1  UNL1        0.0812
     20 N          64.0669   86.7966   14.4373 N.ar    1  UNL1       -0.2454
     21 C          64.0211   88.1569   15.0678 C.ar    1  UNL1        0.0813
     22 C          64.7144   89.3125   14.4091 C.ar    1  UNL1        0.0206
     23 C          63.4195   84.2806   14.4656 C.ar    1  UNL1        0.0176
     24 C          62.4769   83.2084   14.9261 C.ar    1  UNL1        0.0015
     25 C          62.5227   81.8481   14.2957 C.ar    1  UNL1        0.0000
     26 C          63.5112   81.5600   13.2048 C.ar    1  UNL1        0.0000
     27 C          64.4537   82.6321   12.7443 C.ar    1  UNL1        0.0000
     28 C          64.4078   83.9925   13.3747 C.ar    1  UNL1        0.0015
     29 C          66.1050   95.5498    9.7632 C.3     1  UNL1        0.0584
     30 C          66.0856   94.0774   10.0490 C.3     1  UNL1        0.0235
     31 C          66.0386   94.3636   11.5207 C.3     1  UNL1        0.0599
     32 C          66.0580   95.8360   11.2349 C.3     1  UNL1        0.0235
     33 C          64.8771   96.8446    7.8749 C.3     1  UNL1        0.0896
     34 N          66.1519   96.3885    8.5205 N.3     1  UNL1       -0.2716
     35 C          67.4736   96.7710    7.9234 C.3     1  UNL1        0.0896
@<TRIPOS>BOND
     1    33    34    1
     2    34    35    1
     3    29    34    1
     4    29    30    1
     5    30    31    1
     6    31     1    1
     7     1     2   ar
     8     2     3   ar
     9     3    13    1
    10    13    14   ar
    11    14    15   ar
    12    15    16   ar
    13    16    17   ar
    14    17    18   ar
    15    18    19   ar
    16    19    23    1
    17    23    24   ar
    18    24    25   ar
    19    25    26   ar
    20    26    27   ar
    21    27    28   ar
    22    19    20   ar
    23    20    21   ar
    24    21    22   ar
    25     3     4   ar
    26     4     5   ar
    27     5     6    1
    28     5     7   ar
    29     7     8   ar
    30     8     9   ar
    31     9    10   ar
    32    31    32    1
    33    32    29    1
    34    10     1   ar
    35    22    13   ar
    36    10     4   ar
    37    21    16   ar
    38    28    23   ar
    39     6    11    1
    40     6    12    1
@<TRIPOS>MOLECULE
*****
 35 40 0 0 0
SMALL
GASTEIGER

@<TRIPOS>ATOM
      1 C          72.2929   79.4508   10.0824 C.ar    1  UNL1        0.1239
      2 N          71.9994   78.0660   10.5785 N.ar    1  UNL1       -0.2305
      3 C          72.2929   78.0286   12.0490 C.ar    1  UNL1        0.1014
      4 C          72.7679   79.3903   12.4617 C.ar    1  UNL1        0.1141
      5 C          73.2004   79.9434   13.7872 C.ar    1  UNL1        0.1432
      6 N          73.2004   79.0644   15.0027 N.pl3   1  UNL1       -0.3414
      7 N          73.6328   81.3755   13.8973 N.ar    1  UNL1       -0.2265
      8 C          73.6328   82.2545   12.6818 C.ar    1  UNL1        0.1193
      9 C          73.2003   81.7013   11.3563 C.ar    1  UNL1        0.1020
     10 N          72.7678   80.2693   11.2462 N.ar    1  UNL1       -0.2885
     11 H          72.9165   78.1245   14.9304 H       1  UNL1        0.1438
     12 H          73.4842   79.4274   15.8727 H       1  UNL1        0.1438
     13 C          72.1386   76.8384   12.9490 C.ar    1  UNL1        0.0207
     14 C          72.5626   76.9242   14.3852 C.ar    1  UNL1        0.0016
     15 C          72.4083   75.7341   15.2850 C.ar    1  UNL1        0.0015
     16 C          71.8300   74.4582   14.7486 C.ar    1  UNL1        0.0177
     17 C          71.6758   73.2680   15.6486 C.ar    1  UNL1        0.0030
     18 C          71.0974   71.9922   15.1122 C.ar    1  UNL1        0.0191
     19 C          70.6734   71.9065   13.6758 C.ar    1  UNL1        0.0812
     20 N          70.8277   73.0966   12.7760 N.ar    1  UNL1       -0.2454
     21 C          71.4060   74.3724   13.3124 C.ar    1  UNL1        0.0813
     22 C          71.5603   75.5626   12.4126 C.ar    1  UNL1        0.0206
     23 C          70.0951   70.6306   13.1395 C.ar    1  UNL1        0.0176
     24 C          70.6202   69.3095   13.6182 C.ar    1  UNL1        0.0015
     25 C          70.0419   68.0337   13.0818 C.ar    1  UNL1        0.0000
     26 C          68.9385   68.0789   12.0667 C.ar    1  UNL1        0.0000
     27 C          68.4135   69.3999   11.5879 C.ar    1  UNL1        0.0000
     28 C          68.9918   70.6757   12.1243 C.ar    1  UNL1        0.0015
     29 C          71.9202   80.6139    6.6732 C.3     1  UNL1        0.0584
     30 C          71.4180   81.0709    8.0107 C.3     1  UNL1        0.0235
     31 C          72.1385   79.9326    8.6702 C.3     1  UNL1        0.0599
     32 C          72.6408   79.4756    7.3327 C.3     1  UNL1        0.0235
     33 C          72.9071   81.7865    4.5753 C.3     1  UNL1        0.0896
     34 N          71.7659   81.0957    5.2610 N.3     1  UNL1       -0.2716
     35 C          70.4703   80.8866    4.5347 C.3     1  UNL1        0.0896
@<TRIPOS>BOND
     1    33    34    1
     2    34    35    1
     3    29    34    1
     4    29    30    1
     5    30    31    1
     6    31     1    1
     7     1     2   ar
     8     2     3   ar
     9     3    13    1
    10    13    14   ar
    11    14    15   ar
    12    15    16   ar
    13    16    17   ar
    14    17    18   ar
    15    18    19   ar
    16    19    23    1
    17    23    24   ar
    18    24    25   ar
    19    25    26   ar
    20    26    27   ar
    21    27    28   ar
    22    19    20   ar
    23    20    21   ar
    24    21    22   ar
    25     3     4   ar
    26     4     5   ar
    27     5     6    1
    28     5     7   ar
    29     7     8   ar
    30     8     9   ar
    31     9    10   ar
    32    31    32    1
    33    32    29    1
    34    10     1   ar
    35    22    13   ar
    36    10     4   ar
    37    21    16   ar
    38    28    23   ar
    39     6    11    1
    40     6    12    1
@<TRIPOS>MOLECULE
*****
 35 40 0 0 0
SMALL
GASTEIGER

@<TRIPOS>ATOM
      1 C          66.0017   90.9996   14.4991 C.ar    1  UNL1        0.1239
      2 N          65.7374   89.6915   15.1839 N.ar    1  UNL1       -0.2305
      3 C          64.6384   88.9926   14.4398 C.ar    1  UNL1        0.1014
      4 C          64.2235   89.8687   13.2952 C.ar    1  UNL1        0.1141
      5 C          63.1874   89.6972   12.2242 C.ar    1  UNL1        0.1432
      6 N          62.3448   88.4568   12.1876 N.pl3   1  UNL1       -0.3414
      7 N          62.9937   90.7662   11.1899 N.ar    1  UNL1       -0.2265
      8 C          63.8363   92.0066   11.2265 C.ar    1  UNL1        0.1193
      9 C          64.8725   92.1781   12.2975 C.ar    1  UNL1        0.1020
     10 N          65.0661   91.1092   13.3318 N.ar    1  UNL1       -0.2885
     11 H          62.4719   87.7552   12.8665 H       1  UNL1        0.1438
     12 H          61.6647   88.3442   11.4847 H       1  UNL1        0.1438
     13 C          64.0565   87.6526   14.7806 C.ar    1  UNL1        0.0207
     14 C          63.4663   87.4148   16.1389 C.ar    1  UNL1        0.0016
     15 C          62.8844   86.0749   16.4796 C.ar    1  UNL1        0.0015
     16 C          62.8926   84.9729   15.4619 C.ar    1  UNL1        0.0177
     17 C          62.3106   83.6330   15.8027 C.ar    1  UNL1        0.0030
     18 C          62.3189   82.5311   14.7851 C.ar    1  UNL1        0.0191
     19 C          62.9091   82.7690   13.4267 C.ar    1  UNL1        0.0812
     20 N          63.4911   84.1088   13.0860 N.ar    1  UNL1       -0.2454
     21 C          63.4828   85.2108   14.1036 C.ar    1  UNL1        0.0813
     22 C          64.0647   86.5507   13.7630 C.ar    1  UNL1        0.0206
     23 C          62.9174   81.6670   12.4091 C.ar    1  UNL1        0.0176
     24 C          62.5334   80.2733   12.8096 C.ar    1  UNL1        0.0015
     25 C          62.5416   79.1714   11.7920 C.ar    1  UNL1        0.0000
     26 C          62.9339   79.4630   10.3738 C.ar    1  UNL1        0.0000
     27 C          63.3179   80.8566    9.9733 C.ar    1  UNL1        0.0000
     28 C          63.3096   81.9586   10.9910 C.ar    1  UNL1        0.0015
     29 C          68.4660   93.4612   15.4900 C.3     1  UNL1        0.0584
     30 C          68.2454   92.0058   15.7780 C.3     1  UNL1        0.0235
     31 C          67.0225   92.0193   14.9096 C.3     1  UNL1        0.0599
     32 C          67.2431   93.4747   14.6216 C.3     1  UNL1        0.0235
     33 C          69.1120   95.5749   16.8558 C.3     1  UNL1        0.0896
     34 N          69.4868   94.4809   15.9005 N.3     1  UNL1       -0.2716
     35 C          70.8822   94.4065   15.3556 C.3     1  UNL1        0.0896
@<TRIPOS>BOND
     1    33    34    1
     2    34    35    1
     3    29    34    1
     4    29    30    1
     5    30    31    1
     6    31     1    1
     7     1     2   ar
     8     2     3   ar
     9     3    13    1
    10    13    14   ar
    11    14    15   ar
    12    15    16   ar
    13    16    17   ar
    14    17    18   ar
    15    18    19   ar
    16    19    23    1
    17    23    24   ar
    18    24    25   ar
    19    25    26   ar
    20    26    27   ar
    21    27    28   ar
    22    19    20   ar
    23    20    21   ar
    24    21    22   ar
    25     3     4   ar
    26     4     5   ar
    27     5     6    1
    28     5     7   ar
    29     7     8   ar
    30     8     9   ar
    31     9    10   ar
    32    31    32    1
    33    32    29    1
    34    10     1   ar
    35    22    13   ar
    36    10     4   ar
    37    21    16   ar
    38    28    23   ar
    39     6    11    1
    40     6    12    1
@<TRIPOS>MOLECULE
*****
 35 40 0 0 0
SMALL
GASTEIGER

@<TRIPOS>ATOM
      1 C          65.0634   90.9238   13.2539 C.ar    1  UNL1        0.1239
      2 N          64.8046   89.4521   13.1225 N.ar    1  UNL1       -0.2305
      3 C          64.2428   88.9622   14.4241 C.ar    1  UNL1        0.1014
      4 C          64.1544   90.1310   15.3601 C.ar    1  UNL1        0.1141
      5 C          63.6776   90.2480   16.7774 C.ar    1  UNL1        0.1432
      6 N          63.1705   89.0357   17.5006 N.pl3   1  UNL1       -0.3414
      7 N          63.7080   91.5774   17.4716 N.ar    1  UNL1       -0.2265
      8 C          64.2151   92.7897   16.7485 C.ar    1  UNL1        0.1193
      9 C          64.6919   92.6727   15.3310 C.ar    1  UNL1        0.1020
     10 N          64.6615   91.3434   14.6369 N.ar    1  UNL1       -0.2885
     11 H          63.1506   88.1632   17.0450 H       1  UNL1        0.1438
     12 H          62.8576   89.1124   18.4309 H       1  UNL1        0.1438
     13 C          63.8402   87.5511   14.7352 C.ar    1  UNL1        0.0207
     14 C          63.4450   87.1746   16.1324 C.ar    1  UNL1        0.0016
     15 C          63.0424   85.7636   16.4435 C.ar    1  UNL1        0.0015
     16 C          63.0349   84.7290   15.3574 C.ar    1  UNL1        0.0177
     17 C          62.6322   83.3179   15.6685 C.ar    1  UNL1        0.0030
     18 C          62.6247   82.2833   14.5824 C.ar    1  UNL1        0.0191
     19 C          63.0198   82.6599   13.1852 C.ar    1  UNL1        0.0812
     20 N          63.4225   84.0709   12.8741 N.ar    1  UNL1       -0.2454
     21 C          63.4300   85.1055   13.9602 C.ar    1  UNL1        0.0813
     22 C          63.8326   86.5165   13.6491 C.ar    1  UNL1        0.0206
     23 C          63.0123   81.6253   12.0991 C.ar    1  UNL1        0.0176
     24 C          62.5938   80.2180   12.4067 C.ar    1  UNL1        0.0015
     25 C          62.5863   79.1834   11.3206 C.ar    1  UNL1        0.0000
     26 C          62.9972   79.5561    9.9269 C.ar    1  UNL1        0.0000
     27 C          63.4157   80.9633    9.6194 C.ar    1  UNL1        0.0000
     28 C          63.4232   81.9979   10.7055 C.ar    1  UNL1        0.0015
     29 C          66.4200   93.0844   10.6838 C.3     1  UNL1        0.0584
     30 C          66.8836   92.6201   12.0327 C.3     1  UNL1        0.0235
     31 C          65.6253   91.8187   12.1894 C.3     1  UNL1        0.0599
     32 C          65.1617   92.2830   10.8405 C.3     1  UNL1        0.0235
     33 C          68.0020   93.4495    8.6555 C.3     1  UNL1        0.0896
     34 N          66.9820   93.9794    9.6193 N.3     1  UNL1       -0.2716
     35 C          66.5239   95.4041    9.5186 C.3     1  UNL1        0.0896
@<TRIPOS>BOND
     1    33    34    1
     2    34    35    1
     3    29    34    1
     4    29    30    1
     5    30    31    1
     6    31     1    1
     7     1     2   ar
     8     2     3   ar
     9     3    13    1
    10    13    14   ar
    11    14    15   ar
    12    15    16   ar
    13    16    17   ar
    14    17    18   ar
    15    18    19   ar
    16    19    23    1
    17    23    24   ar
    18    24    25   ar
    19    25    26   ar
    20    26    27   ar
    21    27    28   ar
    22    19    20   ar
    23    20    21   ar
    24    21    22   ar
    25     3     4   ar
    26     4     5   ar
    27     5     6    1
    28     5     7   ar
    29     7     8   ar
    30     8     9   ar
    31     9    10   ar
    32    31    32    1
    33    32    29    1
    34    10     1   ar
    35    22    13   ar
    36    10     4   ar
    37    21    16   ar
    38    28    23   ar
    39     6    11    1
    40     6    12    1
@<TRIPOS>MOLECULE
*****
 35 40 0 0 0
SMALL
GASTEIGER

@<TRIPOS>ATOM
      1 C          64.5129   89.2613   13.6632 C.ar    1  UNL1        0.1239
      2 N          63.6545   89.3845   12.4393 N.ar    1  UNL1       -0.2305
      3 C          62.9811   88.0639   12.2106 C.ar    1  UNL1        0.1014
      4 C          63.4232   87.1244   13.2932 C.ar    1  UNL1        0.1141
      5 C          63.0861   85.6907   13.5774 C.ar    1  UNL1        0.1432
      6 N          62.1394   84.9507   12.6796 N.pl3   1  UNL1       -0.3414
      7 N          63.6957   84.9971   14.7595 N.ar    1  UNL1       -0.2265
      8 C          64.6424   85.7371   15.6572 C.ar    1  UNL1        0.1193
      9 C          64.9795   87.1709   15.3729 C.ar    1  UNL1        0.1020
     10 N          64.3700   87.8645   14.1909 N.ar    1  UNL1       -0.2885
     11 H          61.7393   85.4060   11.9038 H       1  UNL1        0.1438
     12 H          61.9181   84.0097   12.8662 H       1  UNL1        0.1438
     13 C          62.0320   87.7395   11.0951 C.ar    1  UNL1        0.0207
     14 C          61.4634   86.3569   10.9723 C.ar    1  UNL1        0.0016
     15 C          60.5145   86.0327    9.8568 C.ar    1  UNL1        0.0015
     16 C          60.1341   87.0910    8.8642 C.ar    1  UNL1        0.0177
     17 C          59.1850   86.7666    7.7487 C.ar    1  UNL1        0.0030
     18 C          58.8046   87.8249    6.7561 C.ar    1  UNL1        0.0191
     19 C          59.3733   89.2076    6.8790 C.ar    1  UNL1        0.0812
     20 N          60.3222   89.5318    7.9944 N.ar    1  UNL1       -0.2454
     21 C          60.7026   88.4735    8.9870 C.ar    1  UNL1        0.0813
     22 C          61.6516   88.7978   10.1025 C.ar    1  UNL1        0.0206
     23 C          58.9929   90.2659    5.8864 C.ar    1  UNL1        0.0176
     24 C          60.0583   91.0003    5.1278 C.ar    1  UNL1        0.0015
     25 C          59.6779   92.0586    4.1351 C.ar    1  UNL1        0.0000
     26 C          58.2321   92.3825    3.9011 C.ar    1  UNL1        0.0000
     27 C          57.1667   91.6480    4.6597 C.ar    1  UNL1        0.0000
     28 C          57.5471   90.5897    5.6523 C.ar    1  UNL1        0.0015
     29 C          66.5692   91.8769   15.0930 C.3     1  UNL1        0.0584
     30 C          66.7583   90.8467   14.0192 C.3     1  UNL1        0.0235
     31 C          65.3647   90.3447   14.2554 C.3     1  UNL1        0.0599
     32 C          65.1756   91.3749   15.3292 C.3     1  UNL1        0.0235
     33 C          67.3705   94.3482   15.1185 C.3     1  UNL1        0.0896
     34 N          67.4210   92.9603   15.6852 N.3     1  UNL1       -0.2716
     35 C          68.3232   92.6558   16.8441 C.3     1  UNL1        0.0896
@<TRIPOS>BOND
     1    33    34    1
     2    34    35    1
     3    29    34    1
     4    29    30    1
     5    30    31    1
     6    31     1    1
     7     1     2   ar
     8     2     3   ar
     9     3    13    1
    10    13    14   ar
    11    14    15   ar
    12    15    16   ar
    13    16    17   ar
    14    17    18   ar
    15    18    19   ar
    16    19    23    1
    17    23    24   ar
    18    24    25   ar
    19    25    26   ar
    20    26    27   ar
    21    27    28   ar
    22    19    20   ar
    23    20    21   ar
    24    21    22   ar
    25     3     4   ar
    26     4     5   ar
    27     5     6    1
    28     5     7   ar
    29     7     8   ar
    30     8     9   ar
    31     9    10   ar
    32    31    32    1
    33    32    29    1
    34    10     1   ar
    35    22    13   ar
    36    10     4   ar
    37    21    16   ar
    38    28    23   ar
    39     6    11    1
    40     6    12    1
@<TRIPOS>MOLECULE
*****
 35 40 0 0 0
SMALL
GASTEIGER

@<TRIPOS>ATOM
      1 C          62.0226   86.1203   10.5955 C.ar    1  UNL1        0.1239
      2 N          61.1682   86.4102    9.3971 N.ar    1  UNL1       -0.2305
      3 C          61.0250   87.8986    9.2790 C.ar    1  UNL1        0.1014
      4 C          61.7909   88.5287   10.4044 C.ar    1  UNL1        0.1141
      5 C          62.0065   89.9613   10.7934 C.ar    1  UNL1        0.1432
      6 N          61.3900   91.0603    9.9798 N.pl3   1  UNL1       -0.3414
      7 N          62.8387   90.2948   11.9960 N.ar    1  UNL1       -0.2265
      8 C          63.4552   89.1958   12.8097 C.ar    1  UNL1        0.1193
      9 C          63.2395   87.7632   12.4206 C.ar    1  UNL1        0.1020
     10 N          62.4074   87.4297   11.2180 N.ar    1  UNL1       -0.2885
     11 H          60.8438   90.8414    9.1904 H       1  UNL1        0.1438
     12 H          61.5315   92.0005   10.2351 H       1  UNL1        0.1438
     13 C          60.2518   88.6289    8.2212 C.ar    1  UNL1        0.0207
     14 C          58.7610   88.4814    8.1456 C.ar    1  UNL1        0.0016
     15 C          57.9878   89.2116    7.0879 C.ar    1  UNL1        0.0015
     16 C          58.7054   90.0893    6.1057 C.ar    1  UNL1        0.0177
     17 C          57.9321   90.8196    5.0479 C.ar    1  UNL1        0.0030
     18 C          58.6497   91.6973    4.0657 C.ar    1  UNL1        0.0191
     19 C          60.1405   91.8448    4.1414 C.ar    1  UNL1        0.0812
     20 N          60.9137   91.1146    5.1991 N.ar    1  UNL1       -0.2454
     21 C          60.1962   90.2368    6.1813 C.ar    1  UNL1        0.0813
     22 C          60.9693   89.5066    7.2390 C.ar    1  UNL1        0.0206
     23 C          60.8581   92.7225    3.1592 C.ar    1  UNL1        0.0176
     24 C          60.1717   93.9290    2.5904 C.ar    1  UNL1        0.0015
     25 C          60.8893   94.8067    1.6083 C.ar    1  UNL1        0.0000
     26 C          62.2933   94.4780    1.1949 C.ar    1  UNL1        0.0000
     27 C          62.9796   93.2716    1.7636 C.ar    1  UNL1        0.0000
     28 C          62.2620   92.3939    2.7458 C.ar    1  UNL1        0.0015
     29 C          62.9868   82.8362   11.7781 C.3     1  UNL1        0.0584
     30 C          63.0772   83.5603   10.4676 C.3     1  UNL1        0.0235
     31 C          62.4220   84.7600   11.0853 C.3     1  UNL1        0.0599
     32 C          62.3315   84.0358   12.3958 C.3     1  UNL1        0.0235
     33 C          62.9347   80.2505   11.5299 C.3     1  UNL1        0.0896
     34 N          63.3862   81.4758   12.2679 N.3     1  UNL1       -0.2716
     35 C          64.2371   81.3408   13.4958 C.3     1  UNL1        0.0896
@<TRIPOS>BOND
     1    33    34    1
     2    34    35    1
     3    29    34    1
     4    29    30    1
     5    30    31    1
     6    31     1    1
     7     1     2   ar
     8     2     3   ar
     9     3    13    1
    10    13    14   ar
    11    14    15   ar
    12    15    16   ar
    13    16    17   ar
    14    17    18   ar
    15    18    19   ar
    16    19    23    1
    17    23    24   ar
    18    24    25   ar
    19    25    26   ar
    20    26    27   ar
    21    27    28   ar
    22    19    20   ar
    23    20    21   ar
    24    21    22   ar
    25     3     4   ar
    26     4     5   ar
    27     5     6    1
    28     5     7   ar
    29     7     8   ar
    30     8     9   ar
    31     9    10   ar
    32    31    32    1
    33    32    29    1
    34    10     1   ar
    35    22    13   ar
    36    10     4   ar
    37    21    16   ar
    38    28    23   ar
    39     6    11    1
    40     6    12    1
