@<TRIPOS>MOLECULE
*****
 27 29 0 0 0
SMALL
GASTEIGER

@<TRIPOS>ATOM
      1 C          65.3160   91.9270   12.4295 C.ar    1  UNL1       -0.0004
      2 C          65.0730   90.9255   13.5194 C.ar    1  UNL1       -0.0024
      3 C          64.0082   89.8819   13.3552 C.ar    1  UNL1       -0.0002
      4 C          63.1865   89.8397   12.1011 C.ar    1  UNL1        0.0030
      5 C          62.1216   88.7960   11.9369 C.ar    1  UNL1        0.0369
      6 C          61.2998   88.7538   10.6827 C.ar    1  UNL1        0.1386
      7 C          61.5429   89.7553    9.5928 C.ar    1  UNL1        0.0369
      8 C          62.6076   90.7990    9.7570 C.ar    1  UNL1        0.0031
      9 C          63.4294   90.8412   11.0111 C.ar    1  UNL1       -0.0001
     10 C          64.4942   91.8848   11.1754 C.ar    1  UNL1       -0.0024
     11 C          66.3808   92.9707   12.5937 C.3     1  UNL1        0.1240
     12 N          67.1906   93.0240   13.8552 N.ar    1  UNL1       -0.3045
     13 C          68.4354   92.2363   14.1379 C.ar    1  UNL1        0.0983
     14 C          68.9118   92.5999   15.5130 C.ar    1  UNL1        0.1193
     15 N          67.9614   93.6124   16.0802 N.ar    1  UNL1       -0.2223
     16 C          66.8977   93.8745   15.0556 C.ar    1  UNL1        0.1788
     17 C          66.0282   95.3306   11.5659 C.3     1  UNL1        0.0197
     18 C          66.6359   93.9610   11.4963 C.3     1  UNL1        0.0827
     19 N          67.4987   93.5817   10.3294 N.3     1  UNL1       -0.2696
     20 C          67.7429   94.5675    9.2255 C.3     1  UNL1        0.0897
     21 C          68.1174   92.2167   10.2664 C.3     1  UNL1        0.0897
     22 O          60.2350   87.7102   10.5185 O.3     1  UNL1       -0.4755
     23 C          60.6170   86.2705   10.3410 C.3     1  UNL1        0.2052
     24 C          61.7012   85.8958    9.3746 C.3     1  UNL1        0.0404
     25 C          60.8364   86.3399    8.2323 C.3     1  UNL1        0.0037
     26 C          62.5660   85.4518   10.5169 C.3     1  UNL1        0.0037
     27 C          62.7854   85.5212    8.4082 C.3     1  UNL1        0.0037
@<TRIPOS>BOND
     1    17    18    1
     2    18    11    1
     3    11     1    1
     4     1     2   ar
     5     2     3   ar
     6     3     4   ar
     7     4     5   ar
     8     5     6   ar
     9     6    22    1
    10    22    23    1
    11    23    24    1
    12    24    25    1
    13    24    26    1
    14    24    27    1
    15     6     7   ar
    16     7     8   ar
    17     8     9   ar
    18     9    10   ar
    19    11    12    1
    20    12    13   ar
    21    13    14   ar
    22    14    15   ar
    23    15    16   ar
    24    18    19    1
    25    19    20    1
    26    19    21    1
    27    10     1   ar
    28    16    12   ar
    29     9     4   ar
@<TRIPOS>MOLECULE
*****
 27 29 0 0 0
SMALL
GASTEIGER

@<TRIPOS>ATOM
      1 C          62.4152   85.8833   11.5259 C.ar    1  UNL1       -0.0004
      2 C          62.7796   87.3030   11.8446 C.ar    1  UNL1       -0.0024
      3 C          62.1929   88.4261   11.0419 C.ar    1  UNL1       -0.0002
      4 C          61.2418   88.1295    9.9205 C.ar    1  UNL1        0.0030
      5 C          60.6551   89.2527    9.1178 C.ar    1  UNL1        0.0369
      6 C          59.7040   88.9561    7.9964 C.ar    1  UNL1        0.1386
      7 C          59.3396   87.5363    7.6778 C.ar    1  UNL1        0.0369
      8 C          59.9263   86.4132    8.4805 C.ar    1  UNL1        0.0031
      9 C          60.8774   86.7098    9.6019 C.ar    1  UNL1       -0.0001
     10 C          61.4641   85.5867   10.4046 C.ar    1  UNL1       -0.0024
     11 C          63.0018   84.7601   12.3287 C.3     1  UNL1        0.1240
     12 N          63.1224   84.8862   13.8185 N.ar    1  UNL1       -0.3045
     13 C          64.2545   85.5334   14.5598 C.ar    1  UNL1        0.0983
     14 C          63.9639   85.4345   16.0280 C.ar    1  UNL1        0.1193
     15 N          62.6521   84.7261   16.1942 N.ar    1  UNL1       -0.2223
     16 C          62.1321   84.3873   14.8286 C.ar    1  UNL1        0.1788
     17 C          63.9754   83.5752   10.2315 C.3     1  UNL1        0.0197
     18 C          63.4679   83.5108   11.6416 C.3     1  UNL1        0.0827
     19 N          63.4265   82.1972   12.3645 N.3     1  UNL1       -0.2696
     20 C          62.1278   81.4601   12.5069 C.3     1  UNL1        0.0897
     21 C          64.6836   81.6206   12.9451 C.3     1  UNL1        0.0897
     22 O          59.1173   90.0792    7.1937 O.3     1  UNL1       -0.4755
     23 C          59.1517   90.0277    5.6950 C.3     1  UNL1        0.2052
     24 C          59.2647   91.2967    4.9033 C.3     1  UNL1        0.0404
     25 C          60.7494   91.1049    4.8079 C.3     1  UNL1        0.0037
     26 C          57.7801   91.4884    4.9986 C.3     1  UNL1        0.0037
     27 C          59.3778   92.5657    4.1116 C.3     1  UNL1        0.0037
@<TRIPOS>BOND
     1    17    18    1
     2    18    11    1
     3    11     1    1
     4     1     2   ar
     5     2     3   ar
     6     3     4   ar
     7     4     5   ar
     8     5     6   ar
     9     6    22    1
    10    22    23    1
    11    23    24    1
    12    24    25    1
    13    24    26    1
    14    24    27    1
    15     6     7   ar
    16     7     8   ar
    17     8     9   ar
    18     9    10   ar
    19    11    12    1
    20    12    13   ar
    21    13    14   ar
    22    14    15   ar
    23    15    16   ar
    24    18    19    1
    25    19    20    1
    26    19    21    1
    27    10     1   ar
    28    16    12   ar
    29     9     4   ar
@<TRIPOS>MOLECULE
*****
 27 29 0 0 0
SMALL
GASTEIGER

@<TRIPOS>ATOM
      1 C          65.2391   91.9386   12.4332 C.ar    1  UNL1       -0.0004
      2 C          65.0494   90.9041   13.5027 C.ar    1  UNL1       -0.0024
      3 C          64.0202   89.8267   13.3298 C.ar    1  UNL1       -0.0002
      4 C          63.1808   89.7838   12.0874 C.ar    1  UNL1        0.0030
      5 C          62.1516   88.7063   11.9145 C.ar    1  UNL1        0.0369
      6 C          61.3121   88.6634   10.6722 C.ar    1  UNL1        0.1386
      7 C          61.5018   89.6980    9.6027 C.ar    1  UNL1        0.0369
      8 C          62.5310   90.7754    9.7756 C.ar    1  UNL1        0.0031
      9 C          63.3704   90.8183   11.0180 C.ar    1  UNL1       -0.0001
     10 C          64.3996   91.8957   11.1909 C.ar    1  UNL1       -0.0024
     11 C          66.2683   93.0161   12.6061 C.3     1  UNL1        0.1240
     12 N          66.4842   94.0282   11.5202 N.ar    1  UNL1       -0.3045
     13 C          67.1010   93.7640   10.1787 C.ar    1  UNL1        0.0983
     14 C          67.1192   95.0547    9.4146 C.ar    1  UNL1        0.1193
     15 N          66.5136   96.1166   10.2839 N.ar    1  UNL1       -0.2223
     16 C          66.1212   95.4822   11.5852 C.ar    1  UNL1        0.1788
     17 C          66.5433   93.7957   15.0692 C.3     1  UNL1        0.0197
     18 C          67.0815   93.0815   13.8648 C.3     1  UNL1        0.0827
     19 N          68.4329   92.4329   13.9192 N.3     1  UNL1       -0.2696
     20 C          68.9332   91.6427   12.7464 C.3     1  UNL1        0.0897
     21 C          69.2839   92.5743   15.1462 C.3     1  UNL1        0.0897
     22 O          60.2829   87.5859   10.4993 O.3     1  UNL1       -0.4755
     23 C          60.7124   86.1586   10.3303 C.3     1  UNL1        0.2052
     24 C          61.7881   85.8108    9.3446 C.3     1  UNL1        0.0404
     25 C          62.6639   85.3385   10.4670 C.3     1  UNL1        0.0037
     26 C          60.9123   86.2831    8.2222 C.3     1  UNL1        0.0037
     27 C          62.8639   85.4629    8.3588 C.3     1  UNL1        0.0037
@<TRIPOS>BOND
     1    17    18    1
     2    18    11    1
     3    11     1    1
     4     1     2   ar
     5     2     3   ar
     6     3     4   ar
     7     4     5   ar
     8     5     6   ar
     9     6    22    1
    10    22    23    1
    11    23    24    1
    12    24    25    1
    13    24    26    1
    14    24    27    1
    15     6     7   ar
    16     7     8   ar
    17     8     9   ar
    18     9    10   ar
    19    11    12    1
    20    12    13   ar
    21    13    14   ar
    22    14    15   ar
    23    15    16   ar
    24    18    19    1
    25    19    20    1
    26    19    21    1
    27    10     1   ar
    28    16    12   ar
    29     9     4   ar
@<TRIPOS>MOLECULE
*****
 27 29 0 0 0
SMALL
GASTEIGER

@<TRIPOS>ATOM
      1 C          62.7358   85.7929   11.9033 C.ar    1  UNL1       -0.0004
      2 C          63.0540   87.2080   12.2854 C.ar    1  UNL1       -0.0024
      3 C          62.4790   88.3457   11.4948 C.ar    1  UNL1       -0.0002
      4 C          61.5858   88.0681   10.3221 C.ar    1  UNL1        0.0030
      5 C          61.0108   89.2059    9.5315 C.ar    1  UNL1        0.0369
      6 C          60.1176   88.9284    8.3588 C.ar    1  UNL1        0.1386
      7 C          59.7995   87.5131    7.9767 C.ar    1  UNL1        0.0369
      8 C          60.3745   86.3755    8.7673 C.ar    1  UNL1        0.0031
      9 C          61.2676   86.6530    9.9400 C.ar    1  UNL1       -0.0001
     10 C          61.8426   85.5153   10.7306 C.ar    1  UNL1       -0.0024
     11 C          63.3108   84.6551   12.6939 C.3     1  UNL1        0.1240
     12 N          63.2399   83.2567   12.1560 N.ar    1  UNL1       -0.3045
     13 C          63.8595   82.7706   10.8794 C.ar    1  UNL1        0.0983
     14 C          63.5395   81.3123   10.7346 C.ar    1  UNL1        0.1193
     15 N          62.7221   80.8971   11.9218 N.ar    1  UNL1       -0.2223
     16 C          62.5370   82.0988   12.8002 C.ar    1  UNL1        0.1788
     17 C          65.4491   84.8468   14.1572 C.3     1  UNL1        0.0197
     18 C          63.9567   84.9158   14.0224 C.3     1  UNL1        0.0827
     19 N          63.1102   85.2456   15.2160 N.3     1  UNL1       -0.2696
     20 C          63.4613   86.4179   16.0835 C.3     1  UNL1        0.0897
     21 C          61.9128   84.4032   15.5421 C.3     1  UNL1        0.0897
     22 O          59.5426   90.0660    7.5682 O.3     1  UNL1       -0.4755
     23 C          59.0873   89.8436    6.1563 C.3     1  UNL1        0.2052
     24 C          59.0405   90.9929    5.1935 C.3     1  UNL1        0.0404
     25 C          57.5430   91.0028    5.2781 C.3     1  UNL1        0.0037
     26 C          60.5381   90.9829    5.1089 C.3     1  UNL1        0.0037
     27 C          58.9938   92.1421    4.2307 C.3     1  UNL1        0.0037
@<TRIPOS>BOND
     1    17    18    1
     2    18    11    1
     3    11     1    1
     4     1     2   ar
     5     2     3   ar
     6     3     4   ar
     7     4     5   ar
     8     5     6   ar
     9     6    22    1
    10    22    23    1
    11    23    24    1
    12    24    25    1
    13    24    26    1
    14    24    27    1
    15     6     7   ar
    16     7     8   ar
    17     8     9   ar
    18     9    10   ar
    19    11    12    1
    20    12    13   ar
    21    13    14   ar
    22    14    15   ar
    23    15    16   ar
    24    18    19    1
    25    19    20    1
    26    19    21    1
    27    10     1   ar
    28    16    12   ar
    29     9     4   ar
@<TRIPOS>MOLECULE
*****
 27 29 0 0 0
SMALL
GASTEIGER

@<TRIPOS>ATOM
      1 C          65.2127   92.3606   11.6761 C.ar    1  UNL1       -0.0004
      2 C          64.4780   92.5945   10.3895 C.ar    1  UNL1       -0.0024
      3 C          63.4240   91.6260    9.9410 C.ar    1  UNL1       -0.0002
      4 C          63.1048   90.4237   10.7792 C.ar    1  UNL1        0.0030
      5 C          62.0507   89.4552   10.3307 C.ar    1  UNL1        0.0369
      6 C          61.7315   88.2529   11.1688 C.ar    1  UNL1        0.1386
      7 C          62.4663   88.0190   12.4555 C.ar    1  UNL1        0.0369
      8 C          63.5203   88.9875   12.9039 C.ar    1  UNL1        0.0031
      9 C          63.8395   90.1898   12.0658 C.ar    1  UNL1       -0.0001
     10 C          64.8935   91.1582   12.5143 C.ar    1  UNL1       -0.0024
     11 C          66.2668   93.3291   12.1246 C.3     1  UNL1        0.1240
     12 N          66.9655   93.1230   13.4359 N.ar    1  UNL1       -0.3045
     13 C          68.1038   92.1798   13.6897 C.ar    1  UNL1        0.0983
     14 C          68.4904   92.2978   15.1343 C.ar    1  UNL1        0.1193
     15 N          67.5909   93.3140   15.7732 N.ar    1  UNL1       -0.2223
     16 C          66.6484   93.8240   14.7236 C.ar    1  UNL1        0.1788
     17 C          66.1334   95.8749   11.6235 C.3     1  UNL1        0.0197
     18 C          66.6221   94.5035   11.2619 C.3     1  UNL1        0.0827
     19 N          67.4662   94.3067   10.0376 N.3     1  UNL1       -0.2696
     20 C          67.6129   95.4184    9.0412 C.3     1  UNL1        0.0897
     21 C          68.1634   92.9984    9.8097 C.3     1  UNL1        0.0897
     22 O          60.6775   87.2844   10.7203 O.3     1  UNL1       -0.4755
     23 C          61.0506   85.8694   10.3906 C.3     1  UNL1        0.2052
     24 C          62.0081   85.5877    9.2710 C.3     1  UNL1        0.0404
     25 C          61.0839   86.2725    8.3083 C.3     1  UNL1        0.0037
     26 C          62.9323   84.9028   10.2337 C.3     1  UNL1        0.0037
     27 C          62.9657   85.3060    8.1513 C.3     1  UNL1        0.0037
@<TRIPOS>BOND
     1    17    18    1
     2    18    11    1
     3    11     1    1
     4     1     2   ar
     5     2     3   ar
     6     3     4   ar
     7     4     5   ar
     8     5     6   ar
     9     6    22    1
    10    22    23    1
    11    23    24    1
    12    24    25    1
    13    24    26    1
    14    24    27    1
    15     6     7   ar
    16     7     8   ar
    17     8     9   ar
    18     9    10   ar
    19    11    12    1
    20    12    13   ar
    21    13    14   ar
    22    14    15   ar
    23    15    16   ar
    24    18    19    1
    25    19    20    1
    26    19    21    1
    27    10     1   ar
    28    16    12   ar
    29     9     4   ar
@<TRIPOS>MOLECULE
*****
 27 29 0 0 0
SMALL
GASTEIGER

@<TRIPOS>ATOM
      1 C          63.4970   85.6012   12.8618 C.ar    1  UNL1       -0.0004
      2 C          64.2304   85.5683   14.1698 C.ar    1  UNL1       -0.0024
      3 C          64.6197   86.8505   14.8438 C.ar    1  UNL1       -0.0002
      4 C          64.2755   88.1656   14.2098 C.ar    1  UNL1        0.0030
      5 C          64.6648   89.4479   14.8839 C.ar    1  UNL1        0.0369
      6 C          64.3206   90.7630   14.2499 C.ar    1  UNL1        0.1386
      7 C          63.5871   90.7959   12.9419 C.ar    1  UNL1        0.0369
      8 C          63.1978   89.5137   12.2678 C.ar    1  UNL1        0.0031
      9 C          63.5420   88.1985   12.9018 C.ar    1  UNL1       -0.0001
     10 C          63.1528   86.9163   12.2278 C.ar    1  UNL1       -0.0024
     11 C          63.1077   84.3189   12.1877 C.3     1  UNL1        0.1240
     12 N          62.5713   83.1775   12.9997 N.ar    1  UNL1       -0.3045
     13 C          62.2925   81.7921   12.4969 C.ar    1  UNL1        0.0983
     14 C          61.7684   80.9794   13.6436 C.ar    1  UNL1        0.1193
     15 N          61.7232   81.8626   14.8552 N.ar    1  UNL1       -0.2223
     16 C          62.2194   83.2211   14.4572 C.ar    1  UNL1        0.1788
     17 C          64.1649   83.1294   10.1340 C.3     1  UNL1        0.0197
     18 C          63.2548   84.1781   10.7016 C.3     1  UNL1        0.0827
     19 N          62.4919   85.0860    9.7830 N.3     1  UNL1       -0.2696
     20 C          63.0162   85.3738    8.4074 C.3     1  UNL1        0.0897
     21 C          61.2048   85.7060   10.2400 C.3     1  UNL1        0.0897
     22 O          64.7098   92.0452   14.9240 O.3     1  UNL1       -0.4755
     23 C          65.9117   92.8071   14.4496 C.3     1  UNL1        0.2052
     24 C          67.2769   92.4444   14.9543 C.3     1  UNL1        0.0404
     25 C          67.6832   92.0433   13.5673 C.3     1  UNL1        0.0037
     26 C          66.8706   92.8455   16.3414 C.3     1  UNL1        0.0037
     27 C          68.6420   92.0817   15.4591 C.3     1  UNL1        0.0037
@<TRIPOS>BOND
     1    17    18    1
     2    18    11    1
     3    11     1    1
     4     1     2   ar
     5     2     3   ar
     6     3     4   ar
     7     4     5   ar
     8     5     6   ar
     9     6    22    1
    10    22    23    1
    11    23    24    1
    12    24    25    1
    13    24    26    1
    14    24    27    1
    15     6     7   ar
    16     7     8   ar
    17     8     9   ar
    18     9    10   ar
    19    11    12    1
    20    12    13   ar
    21    13    14   ar
    22    14    15   ar
    23    15    16   ar
    24    18    19    1
    25    19    20    1
    26    19    21    1
    27    10     1   ar
    28    16    12   ar
    29     9     4   ar
@<TRIPOS>MOLECULE
*****
 27 29 0 0 0
SMALL
GASTEIGER

@<TRIPOS>ATOM
      1 C          62.4142   88.2139   10.7104 C.ar    1  UNL1       -0.0004
      2 C          62.4900   89.5298    9.9945 C.ar    1  UNL1       -0.0024
      3 C          63.1135   90.7156   10.6690 C.ar    1  UNL1       -0.0002
      4 C          63.6613   90.5855   12.0593 C.ar    1  UNL1        0.0030
      5 C          64.2849   91.7714   12.7338 C.ar    1  UNL1        0.0369
      6 C          64.8327   91.6413   14.1241 C.ar    1  UNL1        0.1386
      7 C          64.7568   90.3252   14.8400 C.ar    1  UNL1        0.0369
      8 C          64.1332   89.1394   14.1655 C.ar    1  UNL1        0.0031
      9 C          63.5855   89.2695   12.7752 C.ar    1  UNL1       -0.0001
     10 C          62.9619   88.0837   12.1007 C.ar    1  UNL1       -0.0024
     11 C          61.7906   87.0280   10.0359 C.3     1  UNL1        0.1240
     12 N          60.7046   87.2278    9.0206 N.ar    1  UNL1       -0.3045
     13 C          60.1540   88.5471    8.5665 C.ar    1  UNL1        0.0983
     14 C          59.0877   88.2781    7.5464 C.ar    1  UNL1        0.1193
     15 N          58.9793   86.7925    7.3700 N.ar    1  UNL1       -0.2223
     16 C          59.9785   86.1434    8.2811 C.ar    1  UNL1        0.1788
     17 C          61.8729   85.0269   11.6909 C.3     1  UNL1        0.0197
     18 C          62.2529   85.6423   10.3767 C.3     1  UNL1        0.0827
     19 N          63.0952   84.8721    9.4035 N.3     1  UNL1       -0.2696
     20 C          63.1922   85.3217    7.9757 C.3     1  UNL1        0.0897
     21 C          63.8405   83.6523    9.8579 C.3     1  UNL1        0.0897
     22 O          65.4562   92.8271   14.7986 O.3     1  UNL1       -0.4755
     23 C          66.7389   93.4003   14.2730 C.3     1  UNL1        0.2052
     24 C          68.0528   92.8243   14.7109 C.3     1  UNL1        0.0404
     25 C          68.0239   93.6897   15.9357 C.3     1  UNL1        0.0037
     26 C          68.0818   91.9589   13.4861 C.3     1  UNL1        0.0037
     27 C          69.3668   92.2484   15.1489 C.3     1  UNL1        0.0037
@<TRIPOS>BOND
     1    17    18    1
     2    18    11    1
     3    11     1    1
     4     1     2   ar
     5     2     3   ar
     6     3     4   ar
     7     4     5   ar
     8     5     6   ar
     9     6    22    1
    10    22    23    1
    11    23    24    1
    12    24    25    1
    13    24    26    1
    14    24    27    1
    15     6     7   ar
    16     7     8   ar
    17     8     9   ar
    18     9    10   ar
    19    11    12    1
    20    12    13   ar
    21    13    14   ar
    22    14    15   ar
    23    15    16   ar
    24    18    19    1
    25    19    20    1
    26    19    21    1
    27    10     1   ar
    28    16    12   ar
    29     9     4   ar
@<TRIPOS>MOLECULE
*****
 27 29 0 0 0
SMALL
GASTEIGER

@<TRIPOS>ATOM
      1 C          65.1907   92.3915   11.7057 C.ar    1  UNL1       -0.0004
      2 C          64.4552   92.6132   10.4174 C.ar    1  UNL1       -0.0024
      3 C          63.4225   91.6244    9.9637 C.ar    1  UNL1       -0.0002
      4 C          63.1252   90.4141   10.7984 C.ar    1  UNL1        0.0030
      5 C          62.0924   89.4254   10.3446 C.ar    1  UNL1        0.0369
      6 C          61.7951   88.2150   11.1793 C.ar    1  UNL1        0.1386
      7 C          62.5307   87.9934   12.4678 C.ar    1  UNL1        0.0369
      8 C          63.5634   88.9822   12.9214 C.ar    1  UNL1        0.0031
      9 C          63.8607   90.1925   12.0868 C.ar    1  UNL1       -0.0001
     10 C          64.8934   91.1812   12.5404 C.ar    1  UNL1       -0.0024
     11 C          66.2235   93.3803   12.1595 C.3     1  UNL1        0.1240
     12 N          66.5413   94.5755   11.3108 N.ar    1  UNL1       -0.3045
     13 C          66.1353   95.9914   11.5944 C.ar    1  UNL1        0.0983
     14 C          66.6640   96.8557   10.4884 C.ar    1  UNL1        0.1193
     15 N          67.3969   95.9741    9.5211 N.ar    1  UNL1       -0.2223
     16 C          67.3210   94.5648   10.0294 C.ar    1  UNL1        0.1788
     17 C          66.3969   93.7855   14.7199 C.3     1  UNL1        0.0197
     18 C          66.9383   93.1737   13.4619 C.3     1  UNL1        0.0827
     19 N          68.1947   92.3554   13.5063 N.3     1  UNL1       -0.2696
     20 C          68.9786   92.2534   14.7811 C.3     1  UNL1        0.0897
     21 C          68.6670   91.6390   12.2760 C.3     1  UNL1        0.0897
     22 O          60.7624   87.2263   10.7256 O.3     1  UNL1       -0.4755
     23 C          61.1630   85.8164   10.4066 C.3     1  UNL1        0.2052
     24 C          62.0821   85.5405    9.2537 C.3     1  UNL1        0.0404
     25 C          61.1303   86.2384    8.3280 C.3     1  UNL1        0.0037
     26 C          63.0338   84.8425   10.1795 C.3     1  UNL1        0.0037
     27 C          63.0011   85.2645    8.1009 C.3     1  UNL1        0.0037
@<TRIPOS>BOND
     1    17    18    1
     2    18    11    1
     3    11     1    1
     4     1     2   ar
     5     2     3   ar
     6     3     4   ar
     7     4     5   ar
     8     5     6   ar
     9     6    22    1
    10    22    23    1
    11    23    24    1
    12    24    25    1
    13    24    26    1
    14    24    27    1
    15     6     7   ar
    16     7     8   ar
    17     8     9   ar
    18     9    10   ar
    19    11    12    1
    20    12    13   ar
    21    13    14   ar
    22    14    15   ar
    23    15    16   ar
    24    18    19    1
    25    19    20    1
    26    19    21    1
    27    10     1   ar
    28    16    12   ar
    29     9     4   ar
@<TRIPOS>MOLECULE
*****
 27 29 0 0 0
SMALL
GASTEIGER

@<TRIPOS>ATOM
      1 C          63.2463   86.3867   12.5687 C.ar    1  UNL1       -0.0004
      2 C          63.9234   86.1431   13.8848 C.ar    1  UNL1       -0.0024
      3 C          64.4395   87.2999   14.6882 C.ar    1  UNL1       -0.0002
      4 C          64.2785   88.7003   14.1755 C.ar    1  UNL1        0.0030
      5 C          64.7947   89.8571   14.9789 C.ar    1  UNL1        0.0369
      6 C          64.6337   91.2575   14.4662 C.ar    1  UNL1        0.1386
      7 C          63.9565   91.5011   13.1500 C.ar    1  UNL1        0.0369
      8 C          63.4404   90.3444   12.3467 C.ar    1  UNL1        0.0031
      9 C          63.6014   88.9439   12.8594 C.ar    1  UNL1       -0.0001
     10 C          63.0853   87.7871   12.0560 C.ar    1  UNL1       -0.0024
     11 C          62.7302   85.2299   11.7653 C.3     1  UNL1        0.1240
     12 N          62.1893   85.4575   10.3848 N.ar    1  UNL1       -0.3045
     13 C          60.8486   86.0399   10.0481 C.ar    1  UNL1        0.0983
     14 C          60.7249   86.0850    8.5539 C.ar    1  UNL1        0.1193
     15 N          61.9891   85.5305    7.9671 N.ar    1  UNL1       -0.2223
     16 C          62.8941   85.1427    9.0987 C.ar    1  UNL1        0.1788
     17 C          62.1237   83.5777   13.6765 C.3     1  UNL1        0.0197
     18 C          62.7549   83.8456   12.3423 C.3     1  UNL1        0.0827
     19 N          63.4108   82.7291   11.5852 N.3     1  UNL1       -0.2696
     20 C          64.6659   82.9875   10.8055 C.3     1  UNL1        0.0897
     21 C          62.8116   81.3541   11.6079 C.3     1  UNL1        0.0897
     22 O          65.1498   92.4143   15.2695 O.3     1  UNL1       -0.4755
     23 C          66.2730   93.2547   14.7383 C.3     1  UNL1        0.2052
     24 C          67.6777   92.7291   14.7592 C.3     1  UNL1        0.0404
     25 C          67.5817   92.4141   13.2958 C.3     1  UNL1        0.0037
     26 C          67.7738   93.0441   16.2226 C.3     1  UNL1        0.0037
     27 C          69.0824   92.2035   14.7801 C.3     1  UNL1        0.0037
@<TRIPOS>BOND
     1    17    18    1
     2    18    11    1
     3    11     1    1
     4     1     2   ar
     5     2     3   ar
     6     3     4   ar
     7     4     5   ar
     8     5     6   ar
     9     6    22    1
    10    22    23    1
    11    23    24    1
    12    24    25    1
    13    24    26    1
    14    24    27    1
    15     6     7   ar
    16     7     8   ar
    17     8     9   ar
    18     9    10   ar
    19    11    12    1
    20    12    13   ar
    21    13    14   ar
    22    14    15   ar
    23    15    16   ar
    24    18    19    1
    25    19    20    1
    26    19    21    1
    27    10     1   ar
    28    16    12   ar
    29     9     4   ar
