@<TRIPOS>MOLECULE
*****
 18 20 0 0 0
SMALL
GASTEIGER

@<TRIPOS>ATOM
      1 C          61.3916   88.3642    9.5421 C.3     1  UNL1        0.0364
      2 C          60.1910   88.5974    8.6736 C.3     1  UNL1        0.0236
      3 C          59.0024   88.5203    7.7619 C.3     1  UNL1        0.0690
      4 N          58.8086   87.0845    7.3735 N.3     1  UNL1       -0.2972
      5 C          59.8774   86.2742    8.0451 C.3     1  UNL1        0.0727
      6 C          60.7318   87.2093    8.8487 C.3     1  UNL1        0.0372
      7 H          58.8847   86.9865    6.3611 H       1  UNL1        0.1233
      8 C          61.6627   86.1576    9.3754 C.ar    1  UNL1       -0.0205
      9 C          62.6446   85.4958    8.4545 C.ar    1  UNL1       -0.0033
     10 C          63.5755   84.4441    8.9812 C.ar    1  UNL1        0.0119
     11 C          63.5244   84.0542   10.4287 C.ar    1  UNL1        0.0682
     12 CL         64.4553   83.0025   10.9554 Cl      1  UNL1       -0.0814
     13 C          62.5425   84.7160   11.3495 C.ar    1  UNL1        0.0679
     14 CL         62.4915   84.3260   12.7971 Cl      1  UNL1       -0.0814
     15 C          61.6116   85.7677   10.8228 C.ar    1  UNL1        0.0080
     16 C          62.4657   88.8964   10.4438 C.3     1  UNL1        0.1426
     17 C          63.2236   89.6970   12.7964 C.3     1  UNL1        0.1741
     18 O          62.2160   89.0162   11.9180 O.3     1  UNL1       -0.3511
@<TRIPOS>BOND
     1    17    18    1
     2    18    16    1
     3     1    16    1
     4     1     2    1
     5     2     3    1
     6     3     4    1
     7     4     5    1
     8     5     6    1
     9     6     8    1
    10     8     9   ar
    11     9    10   ar
    12    10    11   ar
    13    11    12    1
    14    11    13   ar
    15    13    14    1
    16    13    15   ar
    17     6     1    1
    18    15     8   ar
    19     6     2    1
    20     4     7    1
@<TRIPOS>MOLECULE
*****
 18 20 0 0 0
SMALL
GASTEIGER

@<TRIPOS>ATOM
      1 C          67.0936   91.7749   13.7681 C.3     1  UNL1        0.0364
      2 C          65.8562   91.1349   14.3242 C.3     1  UNL1        0.0236
      3 C          64.4789   90.6272   14.6329 C.3     1  UNL1        0.0690
      4 N          63.5507   91.1271   13.5659 N.3     1  UNL1       -0.2972
      5 C          64.3543   91.9437   12.5977 C.3     1  UNL1        0.0727
      6 C          65.7793   91.9485   13.0663 C.3     1  UNL1        0.0372
      7 H          62.8216   91.7049   13.9843 H       1  UNL1        0.1233
      8 C          66.3081   92.8013   11.9515 C.ar    1  UNL1       -0.0205
      9 C          65.9992   94.2688   11.9184 C.ar    1  UNL1       -0.0033
     10 C          66.5280   95.1216   10.8035 C.ar    1  UNL1        0.0119
     11 C          67.3658   94.5070    9.7217 C.ar    1  UNL1        0.0682
     12 CL         67.8947   95.3598    8.6069 Cl      1  UNL1       -0.0814
     13 C          67.6748   93.0395    9.7548 C.ar    1  UNL1        0.0679
     14 CL         68.5126   92.4249    8.6730 Cl      1  UNL1       -0.0814
     15 C          67.1459   92.1867   10.8697 C.ar    1  UNL1        0.0080
     16 C          68.5668   92.0443   13.8521 C.3     1  UNL1        0.1426
     17 C          68.1919   93.6343   15.8724 C.3     1  UNL1        0.1741
     18 O          69.0864   93.0822   14.8023 O.3     1  UNL1       -0.3511
@<TRIPOS>BOND
     1    17    18    1
     2    18    16    1
     3     1    16    1
     4     1     2    1
     5     2     3    1
     6     3     4    1
     7     4     5    1
     8     5     6    1
     9     6     8    1
    10     8     9   ar
    11     9    10   ar
    12    10    11   ar
    13    11    12    1
    14    11    13   ar
    15    13    14    1
    16    13    15   ar
    17     6     1    1
    18    15     8   ar
    19     6     2    1
    20     4     7    1
@<TRIPOS>MOLECULE
*****
 18 20 0 0 0
SMALL
GASTEIGER

@<TRIPOS>ATOM
      1 C          63.5804   90.4216   12.6930 C.3     1  UNL1        0.0364
      2 C          64.5300   91.5701   12.5227 C.3     1  UNL1        0.0236
      3 C          65.5835   92.6319   12.6354 C.3     1  UNL1        0.0690
      4 N          66.2788   92.4571   13.9529 N.3     1  UNL1       -0.2972
      5 C          65.6550   91.2873   14.6547 C.3     1  UNL1        0.0727
      6 C          64.5742   90.7391   13.7707 C.3     1  UNL1        0.0372
      7 H          66.1671   93.2992   14.5176 H       1  UNL1        0.1233
      8 C          64.1581   89.6356   14.6977 C.ar    1  UNL1       -0.0205
      9 C          63.4076   89.9563   15.9562 C.ar    1  UNL1       -0.0033
     10 C          62.9916   88.8528   16.8832 C.ar    1  UNL1        0.0119
     11 C          63.3260   87.4288   16.5517 C.ar    1  UNL1        0.0682
     12 CL         62.9099   86.3253   17.4787 Cl      1  UNL1       -0.0814
     13 C          64.0765   87.1081   15.2931 C.ar    1  UNL1        0.0679
     14 CL         64.4109   85.6838   14.9615 Cl      1  UNL1       -0.0814
     15 C          64.4925   88.2115   14.3661 C.ar    1  UNL1        0.0080
     16 C          62.4583   89.5752   12.1690 C.3     1  UNL1        0.1426
     17 C          59.8695   89.6393   11.9594 C.3     1  UNL1        0.1741
     18 O          61.1043   89.6435   12.8110 O.3     1  UNL1       -0.3511
@<TRIPOS>BOND
     1    17    18    1
     2    18    16    1
     3     1    16    1
     4     1     2    1
     5     2     3    1
     6     3     4    1
     7     4     5    1
     8     5     6    1
     9     6     8    1
    10     8     9   ar
    11     9    10   ar
    12    10    11   ar
    13    11    12    1
    14    11    13   ar
    15    13    14    1
    16    13    15   ar
    17     6     1    1
    18    15     8   ar
    19     6     2    1
    20     4     7    1
@<TRIPOS>MOLECULE
*****
 18 20 0 0 0
SMALL
GASTEIGER

@<TRIPOS>ATOM
      1 C          62.8804   85.5957   12.5431 C.3     1  UNL1        0.0364
      2 C          63.6722   86.2008   13.6643 C.3     1  UNL1        0.0236
      3 C          64.5940   86.5211   14.8034 C.3     1  UNL1        0.0690
      4 N          65.3821   85.2856   15.1234 N.3     1  UNL1       -0.2972
      5 C          64.9473   84.2017   14.1821 C.3     1  UNL1        0.0727
      6 C          63.8905   84.7673   13.2803 C.3     1  UNL1        0.0372
      7 H          65.2029   85.0005   16.0862 H       1  UNL1        0.1233
      8 C          63.6668   83.5101   12.4931 C.ar    1  UNL1       -0.0205
      9 C          64.0787   83.4442   11.0523 C.ar    1  UNL1       -0.0033
     10 C          63.8550   82.1870   10.2652 C.ar    1  UNL1        0.0119
     11 C          63.2195   80.9960   10.9188 C.ar    1  UNL1        0.0682
     12 CL         62.9959   79.7388   10.1317 Cl      1  UNL1       -0.0814
     13 C          62.8077   81.0619   12.3596 C.ar    1  UNL1        0.0679
     14 CL         62.1721   79.8708   13.0134 Cl      1  UNL1       -0.0814
     15 C          63.0313   82.3191   13.1468 C.ar    1  UNL1        0.0080
     16 C          61.8402   85.7247   11.4702 C.3     1  UNL1        0.1426
     17 C          60.3865   87.3827   10.0962 C.3     1  UNL1        0.1741
     18 O          60.9775   86.9501   11.4053 O.3     1  UNL1       -0.3511
@<TRIPOS>BOND
     1    17    18    1
     2    18    16    1
     3     1    16    1
     4     1     2    1
     5     2     3    1
     6     3     4    1
     7     4     5    1
     8     5     6    1
     9     6     8    1
    10     8     9   ar
    11     9    10   ar
    12    10    11   ar
    13    11    12    1
    14    11    13   ar
    15    13    14    1
    16    13    15   ar
    17     6     1    1
    18    15     8   ar
    19     6     2    1
    20     4     7    1
@<TRIPOS>MOLECULE
*****
 18 20 0 0 0
SMALL
GASTEIGER

@<TRIPOS>ATOM
      1 C          66.8987   92.5346   12.8690 C.3     1  UNL1        0.0364
      2 C          67.3331   93.1112   14.1839 C.3     1  UNL1        0.0236
      3 C          67.5246   93.5254   15.6128 C.3     1  UNL1        0.0690
      4 N          66.4539   92.8692   16.4331 N.3     1  UNL1       -0.2972
      5 C          65.6006   92.0495   15.5112 C.3     1  UNL1        0.0727
      6 C          66.1440   92.1990   14.1211 C.3     1  UNL1        0.0372
      7 H          65.8841   93.5804   16.8912 H       1  UNL1        0.1233
      8 C          65.1329   91.3091   13.4609 C.ar    1  UNL1       -0.0205
      9 C          64.7516   90.0057   14.0978 C.ar    1  UNL1       -0.0033
     10 C          63.7405   89.1157   13.4377 C.ar    1  UNL1        0.0119
     11 C          63.1108   89.5293   12.1407 C.ar    1  UNL1        0.0682
     12 CL         62.0997   88.6394   11.4805 Cl      1  UNL1       -0.0814
     13 C          63.4920   90.8328   11.5038 C.ar    1  UNL1        0.0679
     14 CL         62.8622   91.2464   10.2067 Cl      1  UNL1       -0.0814
     15 C          64.5031   91.7227   12.1639 C.ar    1  UNL1        0.0080
     16 C          67.0837   92.3955   11.3870 C.3     1  UNL1        0.1426
     17 C          68.7463   92.4944    9.3930 C.3     1  UNL1        0.1741
     18 O          68.4507   92.1465   10.8219 O.3     1  UNL1       -0.3511
@<TRIPOS>BOND
     1    17    18    1
     2    18    16    1
     3     1    16    1
     4     1     2    1
     5     2     3    1
     6     3     4    1
     7     4     5    1
     8     5     6    1
     9     6     8    1
    10     8     9   ar
    11     9    10   ar
    12    10    11   ar
    13    11    12    1
    14    11    13   ar
    15    13    14    1
    16    13    15   ar
    17     6     1    1
    18    15     8   ar
    19     6     2    1
    20     4     7    1
@<TRIPOS>MOLECULE
*****
 18 20 0 0 0
SMALL
GASTEIGER

@<TRIPOS>ATOM
      1 C          64.3428   91.5686   11.8832 C.3     1  UNL1        0.0364
      2 C          64.4694   91.1659   13.3226 C.3     1  UNL1        0.0236
      3 C          64.8472   90.9506   14.7582 C.3     1  UNL1        0.0690
      4 N          66.0758   91.7634   15.0410 N.3     1  UNL1       -0.2972
      5 C          66.4573   92.4810   13.7802 C.3     1  UNL1        0.0727
      6 C          65.4644   92.1117   12.7181 C.3     1  UNL1        0.0372
      7 H          66.8365   91.1503   15.3340 H       1  UNL1        0.1233
      8 C          66.0804   92.9427   11.6319 C.ar    1  UNL1       -0.0205
      9 C          65.7302   94.3961   11.5096 C.ar    1  UNL1       -0.0033
     10 C          66.3462   95.2272   10.4234 C.ar    1  UNL1        0.0119
     11 C          67.3122   94.6049    9.4594 C.ar    1  UNL1        0.0682
     12 CL         67.9282   95.4359    8.3732 Cl      1  UNL1       -0.0814
     13 C          67.6624   93.1515    9.5817 C.ar    1  UNL1        0.0679
     14 CL         68.6286   92.5291    8.6177 Cl      1  UNL1       -0.0814
     15 C          67.0465   92.3204   10.6680 C.ar    1  UNL1        0.0080
     16 C          63.6222   91.4876   10.5702 C.3     1  UNL1        0.1426
     17 C          61.4137   90.3064   11.2610 C.3     1  UNL1        0.1741
     18 O          62.5949   90.4185   10.3432 O.3     1  UNL1       -0.3511
@<TRIPOS>BOND
     1    17    18    1
     2    18    16    1
     3     1    16    1
     4     1     2    1
     5     2     3    1
     6     3     4    1
     7     4     5    1
     8     5     6    1
     9     6     8    1
    10     8     9   ar
    11     9    10   ar
    12    10    11   ar
    13    11    12    1
    14    11    13   ar
    15    13    14    1
    16    13    15   ar
    17     6     1    1
    18    15     8   ar
    19     6     2    1
    20     4     7    1
@<TRIPOS>MOLECULE
*****
 18 20 0 0 0
SMALL
GASTEIGER

@<TRIPOS>ATOM
      1 C          63.6775   82.6922   11.9032 C.3     1  UNL1        0.0364
      2 C          62.9900   81.4933   12.4864 C.3     1  UNL1        0.0236
      3 C          62.2434   80.4865   13.3103 C.3     1  UNL1        0.0690
      4 N          61.8168   81.1545   14.5838 N.3     1  UNL1       -0.2972
      5 C          62.2998   82.5741   14.5470 C.3     1  UNL1        0.0727
      6 C          63.0249   82.7836   13.2507 C.3     1  UNL1        0.0372
      7 H          62.2263   80.6702   15.3826 H       1  UNL1        0.1233
      8 C          63.3714   84.2223   13.4955 C.ar    1  UNL1       -0.0205
      9 C          64.1908   84.6031   14.6928 C.ar    1  UNL1       -0.0033
     10 C          64.5373   86.0419   14.9377 C.ar    1  UNL1        0.0119
     11 C          64.0645   87.0997   13.9852 C.ar    1  UNL1        0.0682
     12 CL         64.4110   88.5385   14.2301 Cl      1  UNL1       -0.0814
     13 C          63.2451   86.7189   12.7879 C.ar    1  UNL1        0.0679
     14 CL         62.7722   87.7769   11.8354 Cl      1  UNL1       -0.0814
     15 C          62.8985   85.2801   12.5431 C.ar    1  UNL1        0.0080
     16 C          64.4512   83.3316   10.7885 C.3     1  UNL1        0.1426
     17 C          63.2191   84.7737    9.0130 C.3     1  UNL1        0.1741
     18 O          63.8326   83.4695    9.4290 O.3     1  UNL1       -0.3511
@<TRIPOS>BOND
     1    17    18    1
     2    18    16    1
     3     1    16    1
     4     1     2    1
     5     2     3    1
     6     3     4    1
     7     4     5    1
     8     5     6    1
     9     6     8    1
    10     8     9   ar
    11     9    10   ar
    12    10    11   ar
    13    11    12    1
    14    11    13   ar
    15    13    14    1
    16    13    15   ar
    17     6     1    1
    18    15     8   ar
    19     6     2    1
    20     4     7    1
@<TRIPOS>MOLECULE
*****
 18 20 0 0 0
SMALL
GASTEIGER

@<TRIPOS>ATOM
      1 C          62.5261   84.9282   11.4348 C.3     1  UNL1        0.0364
      2 C          63.2667   83.8923   10.6421 C.3     1  UNL1        0.0236
      3 C          64.1400   82.7878   10.1251 C.3     1  UNL1        0.0690
      4 N          64.9300   82.2432   11.2781 N.3     1  UNL1       -0.2972
      5 C          64.5448   83.0111   12.5077 C.3     1  UNL1        0.0727
      6 C          63.5169   84.0303   12.1146 C.3     1  UNL1        0.0372
      7 H          65.9276   82.3557   11.0980 H       1  UNL1        0.1233
      8 C          63.3388   84.6106   13.4864 C.ar    1  UNL1       -0.0205
      9 C          62.5987   83.8376   14.5374 C.ar    1  UNL1       -0.0033
     10 C          62.4207   84.4179   15.9092 C.ar    1  UNL1        0.0119
     11 C          62.9828   85.7710   16.2298 C.ar    1  UNL1        0.0682
     12 CL         62.8048   86.3513   17.6015 Cl      1  UNL1       -0.0814
     13 C          63.7229   86.5440   15.1787 C.ar    1  UNL1        0.0679
     14 CL         64.2850   87.8973   15.4994 Cl      1  UNL1       -0.0814
     15 C          63.9009   85.9638   13.8070 C.ar    1  UNL1        0.0080
     16 C          61.5266   86.0447   11.4999 C.3     1  UNL1        0.1426
     17 C          60.0944   87.8281   10.2677 C.3     1  UNL1        0.1741
     18 O          60.8933   86.5588   10.2411 O.3     1  UNL1       -0.3511
@<TRIPOS>BOND
     1    17    18    1
     2    18    16    1
     3     1    16    1
     4     1     2    1
     5     2     3    1
     6     3     4    1
     7     4     5    1
     8     5     6    1
     9     6     8    1
    10     8     9   ar
    11     9    10   ar
    12    10    11   ar
    13    11    12    1
    14    11    13   ar
    15    13    14    1
    16    13    15   ar
    17     6     1    1
    18    15     8   ar
    19     6     2    1
    20     4     7    1
@<TRIPOS>MOLECULE
*****
 18 20 0 0 0
SMALL
GASTEIGER

@<TRIPOS>ATOM
      1 C          63.9010   83.8927   13.6282 C.3     1  UNL1        0.0364
      2 C          63.8597   82.4059   13.8223 C.3     1  UNL1        0.0236
      3 C          63.6612   80.9211   13.7452 C.3     1  UNL1        0.0690
      4 N          62.9000   80.6200   12.4883 N.3     1  UNL1       -0.2972
      5 C          62.6281   81.9186   11.7886 C.3     1  UNL1        0.0727
      6 C          63.2212   83.0224   12.6130 C.3     1  UNL1        0.0372
      7 H          62.0193   80.1600   12.7188 H       1  UNL1        0.1233
      8 C          62.8072   84.1391   11.7011 C.ar    1  UNL1       -0.0205
      9 C          62.0017   85.2854   12.2369 C.ar    1  UNL1       -0.0033
     10 C          61.5877   86.4022   11.3250 C.ar    1  UNL1        0.0119
     11 C          61.9793   86.3725    9.8773 C.ar    1  UNL1        0.0682
     12 CL         61.5653   87.4892    8.9654 Cl      1  UNL1       -0.0814
     13 C          62.7848   85.2262    9.3416 C.ar    1  UNL1        0.0679
     14 CL         63.1764   85.1966    7.8938 Cl      1  UNL1       -0.0814
     15 C          63.1988   84.1095   10.2535 C.ar    1  UNL1        0.0080
     16 C          64.3172   85.2536   14.1022 C.3     1  UNL1        0.1426
     17 C          62.7436   85.0878   16.1628 C.3     1  UNL1        0.1741
     18 O          63.5805   85.9126   15.2305 O.3     1  UNL1       -0.3511
@<TRIPOS>BOND
     1    17    18    1
     2    18    16    1
     3     1    16    1
     4     1     2    1
     5     2     3    1
     6     3     4    1
     7     4     5    1
     8     5     6    1
     9     6     8    1
    10     8     9   ar
    11     9    10   ar
    12    10    11   ar
    13    11    12    1
    14    11    13   ar
    15    13    14    1
    16    13    15   ar
    17     6     1    1
    18    15     8   ar
    19     6     2    1
    20     4     7    1
