@<TRIPOS>MOLECULE
*****
 32 35 0 0 0
SMALL
GASTEIGER

@<TRIPOS>ATOM
      1 C          65.3554   92.6334   11.8260 C.3     1  UNL1        0.1849
      2 C          64.7264   92.3028   10.5050 C.3     1  UNL1        0.0686
      3 C          63.5381   91.3893   10.4477 C.3     1  UNL1        0.1010
      4 N          62.9786   90.8064   11.7116 N.am    1  UNL1       -0.2438
      5 C          63.6076   91.1369   13.0326 C.2     1  UNL1        0.4052
      6 O          63.0482   90.5540   14.2964 O.2     1  UNL1       -0.2262
      7 O          64.7959   92.0504   13.0898 O.3     1  UNL1       -0.4350
      8 C          66.2399   93.4269   10.9105 C.ar    1  UNL1        0.0161
      9 C          66.0815   94.9157   10.8189 C.ar    1  UNL1       -0.0009
     10 C          66.9660   95.7091    9.9035 C.ar    1  UNL1       -0.0002
     11 C          68.0090   95.0137    9.0797 C.ar    1  UNL1       -0.0000
     12 C          68.1675   93.5249    9.1713 C.ar    1  UNL1       -0.0002
     13 C          67.2829   92.7315   10.0867 C.ar    1  UNL1       -0.0009
     14 C          61.7903   89.8929   11.6543 C.3     1  UNL1        0.1011
     15 C          60.4054   90.4665   11.5985 C.3     1  UNL1        0.0265
     16 C          61.9868   88.4058   11.6529 C.ar    1  UNL1       -0.0042
     17 C          61.0768   87.5298   10.8439 C.ar    1  UNL1       -0.0027
     18 C          61.2733   86.0427   10.8425 C.ar    1  UNL1       -0.0002
     19 C          62.3799   85.4316   11.6500 C.ar    1  UNL1        0.0014
     20 C          63.2900   86.3077   12.4591 C.ar    1  UNL1       -0.0002
     21 C          63.0934   87.7947   12.4604 C.ar    1  UNL1       -0.0027
     22 C          62.5764   83.9447   11.6486 C.ar    1  UNL1        0.0175
     23 C          63.2796   83.2821   10.5013 C.ar    1  UNL1        0.0064
     24 C          63.4762   81.7951   10.4998 C.ar    1  UNL1        0.0608
     25 C          62.9695   80.9705   11.6458 C.ar    1  UNL1        0.2610
     26 O          63.1661   79.4834   11.6443 O.2     1  UNL1       -0.2670
     27 N          62.2663   81.6329   12.7933 N.ar    1  UNL1       -0.2922
     28 C          61.7597   80.8083   13.9392 C.3     1  UNL1        0.1336
     29 C          62.0698   83.1200   12.7947 C.ar    1  UNL1        0.0783
     30 C          66.2915   93.2395   12.8291 C.3     1  UNL1        0.1864
     31 C          67.0710   93.2037   15.3072 C.3     1  UNL1        0.1743
     32 O          65.9670   93.1757   14.2921 O.3     1  UNL1       -0.3470
@<TRIPOS>BOND
     1    31    32    1
     2    32    30    1
     3     1    30    1
     4     1     8    1
     5     8     9   ar
     6     9    10   ar
     7    10    11   ar
     8    11    12   ar
     9    12    13   ar
    10     1     2    1
    11     2     3    1
    12     3     4    1
    13     4    14    1
    14    14    15    1
    15    14    16    1
    16    16    17   ar
    17    17    18   ar
    18    18    19   ar
    19    19    22    1
    20    22    23   ar
    21    23    24   ar
    22    24    25   ar
    23    25    26    2
    24    25    27   ar
    25    27    28    1
    26    27    29   ar
    27    19    20   ar
    28    20    21   ar
    29     4     5   am
    30     5     6    2
    31     5     7    1
    32     7     1    1
    33    13     8   ar
    34    21    16   ar
    35    29    22   ar
@<TRIPOS>MOLECULE
*****
 32 35 0 0 0
SMALL
GASTEIGER

@<TRIPOS>ATOM
      1 C          65.7455   92.1288   12.7052 C.3     1  UNL1        0.1849
      2 C          65.2090   91.1271   13.6843 C.3     1  UNL1        0.0686
      3 C          64.0211   90.2860   13.3218 C.3     1  UNL1        0.1010
      4 N          63.3697   90.4467   11.9802 N.am    1  UNL1       -0.2438
      5 C          63.9062   91.4484   11.0011 C.2     1  UNL1        0.4052
      6 O          63.2547   91.6091    9.6595 O.2     1  UNL1       -0.2262
      7 O          65.0941   92.2895   11.3636 O.3     1  UNL1       -0.4350
      8 C          66.6982   92.3417   13.8441 C.ar    1  UNL1        0.0161
      9 C          66.1765   92.7296   15.1959 C.ar    1  UNL1       -0.0009
     10 C          67.1292   92.9425   16.3347 C.ar    1  UNL1       -0.0002
     11 C          68.6036   92.7676   16.1218 C.ar    1  UNL1       -0.0000
     12 C          69.1254   92.3797   14.7700 C.ar    1  UNL1       -0.0002
     13 C          68.1727   92.1668   13.6312 C.ar    1  UNL1       -0.0009
     14 C          62.1817   89.6056   11.6178 C.3     1  UNL1        0.1011
     15 C          60.8839   90.2605   11.2479 C.3     1  UNL1        0.0265
     16 C          62.2916   88.1097   11.6252 C.ar    1  UNL1       -0.0042
     17 C          63.1555   87.4261   12.6431 C.ar    1  UNL1       -0.0027
     18 C          63.2653   85.9301   12.6506 C.ar    1  UNL1       -0.0002
     19 C          62.5112   85.1177   11.6399 C.ar    1  UNL1        0.0014
     20 C          61.6472   85.8013   10.6219 C.ar    1  UNL1       -0.0002
     21 C          61.5375   87.2973   10.6146 C.ar    1  UNL1       -0.0027
     22 C          62.6210   83.6218   11.6473 C.ar    1  UNL1        0.0175
     23 C          63.1921   82.9059   10.4594 C.ar    1  UNL1        0.0064
     24 C          63.3020   81.4099   10.4667 C.ar    1  UNL1        0.0608
     25 C          62.8406   80.6299   11.6620 C.ar    1  UNL1        0.2610
     26 O          62.9505   79.1339   11.6693 O.2     1  UNL1       -0.2670
     27 N          62.2695   81.3458   12.8500 N.ar    1  UNL1       -0.2922
     28 C          61.8082   80.5658   14.0453 C.3     1  UNL1        0.1336
     29 C          62.1597   82.8418   12.8426 C.ar    1  UNL1        0.0783
     30 C          66.6129   93.2045   12.1216 C.3     1  UNL1        0.1864
     31 C          66.5060   95.4870   10.8851 C.3     1  UNL1        0.1743
     32 O          66.1056   94.6135   12.0370 O.3     1  UNL1       -0.3470
@<TRIPOS>BOND
     1    31    32    1
     2    32    30    1
     3     1    30    1
     4     1     8    1
     5     8     9   ar
     6     9    10   ar
     7    10    11   ar
     8    11    12   ar
     9    12    13   ar
    10     1     2    1
    11     2     3    1
    12     3     4    1
    13     4    14    1
    14    14    15    1
    15    14    16    1
    16    16    17   ar
    17    17    18   ar
    18    18    19   ar
    19    19    22    1
    20    22    23   ar
    21    23    24   ar
    22    24    25   ar
    23    25    26    2
    24    25    27   ar
    25    27    28    1
    26    27    29   ar
    27    19    20   ar
    28    20    21   ar
    29     4     5   am
    30     5     6    2
    31     5     7    1
    32     7     1    1
    33    13     8   ar
    34    21    16   ar
    35    29    22   ar
@<TRIPOS>MOLECULE
*****
 32 35 0 0 0
SMALL
GASTEIGER

@<TRIPOS>ATOM
      1 C          63.4728   84.9154   14.3443 C.3     1  UNL1        0.1849
      2 C          63.8206   85.8967   13.2644 C.3     1  UNL1        0.0686
      3 C          63.9276   87.3581   13.5850 C.3     1  UNL1        0.1010
      4 N          63.6868   87.8382   14.9856 N.am    1  UNL1       -0.2438
      5 C          63.3390   86.8570   16.0655 C.2     1  UNL1        0.4052
      6 O          63.0982   87.3372   17.4660 O.2     1  UNL1       -0.2262
      7 O          63.2320   85.3956   15.7449 O.3     1  UNL1       -0.4350
      8 C          63.6093   83.9818   13.1782 C.ar    1  UNL1        0.0161
      9 C          62.8104   84.2181   11.9308 C.ar    1  UNL1       -0.0009
     10 C          62.9469   83.2845   10.7648 C.ar    1  UNL1       -0.0002
     11 C          63.8822   82.1147   10.8460 C.ar    1  UNL1       -0.0000
     12 C          64.6811   81.8784   12.0934 C.ar    1  UNL1       -0.0002
     13 C          64.5446   82.8120   13.2595 C.ar    1  UNL1       -0.0009
     14 C          63.7939   89.2997   15.3062 C.3     1  UNL1        0.1011
     15 C          63.3107   89.8145   16.6297 C.3     1  UNL1        0.0265
     16 C          64.3840   90.2462   14.3034 C.ar    1  UNL1       -0.0042
     17 C          65.7165   90.8827   14.5663 C.ar    1  UNL1       -0.0027
     18 C          66.3067   91.8293   13.5635 C.ar    1  UNL1       -0.0002
     19 C          65.5642   92.1395   12.2976 C.ar    1  UNL1        0.0014
     20 C          64.2315   91.5030   12.0345 C.ar    1  UNL1       -0.0002
     21 C          63.6415   90.5565   13.0374 C.ar    1  UNL1       -0.0027
     22 C          66.1542   93.0860   11.2948 C.ar    1  UNL1        0.0175
     23 C          67.2445   92.6210   10.3756 C.ar    1  UNL1        0.0064
     24 C          67.8346   93.5675    9.3727 C.ar    1  UNL1        0.0608
     25 C          67.3344   94.9792    9.2889 C.ar    1  UNL1        0.2610
     26 O          67.9245   95.9257    8.2860 O.2     1  UNL1       -0.2670
     27 N          66.2441   95.4443   10.2081 N.ar    1  UNL1       -0.2922
     28 C          65.7438   96.8559   10.1244 C.3     1  UNL1        0.1336
     29 C          65.6540   94.4977   11.2110 C.ar    1  UNL1        0.0783
     30 C          63.1724   83.6099   15.0192 C.3     1  UNL1        0.1864
     31 C          61.6353   81.6121   14.3899 C.3     1  UNL1        0.1743
     32 O          61.8025   83.0082   14.9125 O.3     1  UNL1       -0.3470
@<TRIPOS>BOND
     1    31    32    1
     2    32    30    1
     3     1    30    1
     4     1     8    1
     5     8     9   ar
     6     9    10   ar
     7    10    11   ar
     8    11    12   ar
     9    12    13   ar
    10     1     2    1
    11     2     3    1
    12     3     4    1
    13     4    14    1
    14    14    15    1
    15    14    16    1
    16    16    17   ar
    17    17    18   ar
    18    18    19   ar
    19    19    22    1
    20    22    23   ar
    21    23    24   ar
    22    24    25   ar
    23    25    26    2
    24    25    27   ar
    25    27    28    1
    26    27    29   ar
    27    19    20   ar
    28    20    21   ar
    29     4     5   am
    30     5     6    2
    31     5     7    1
    32     7     1    1
    33    13     8   ar
    34    21    16   ar
    35    29    22   ar
@<TRIPOS>MOLECULE
*****
 32 35 0 0 0
SMALL
GASTEIGER

@<TRIPOS>ATOM
      1 C          66.0137   92.8852   13.3649 C.3     1  UNL1        0.1849
      2 C          65.5361   91.7550   12.5021 C.3     1  UNL1        0.0686
      3 C          64.7881   90.6081   13.1147 C.3     1  UNL1        0.1010
      4 N          64.5177   90.5915   14.5900 N.am    1  UNL1       -0.2438
      5 C          64.9954   91.7217   15.4528 C.2     1  UNL1        0.4052
      6 O          64.7250   91.7051   16.9282 O.2     1  UNL1       -0.2262
      7 O          65.7434   92.8686   14.8403 O.3     1  UNL1       -0.4350
      8 C          66.5098   93.3505   12.0279 C.ar    1  UNL1        0.0161
      9 C          66.2409   94.7551   11.5755 C.ar    1  UNL1       -0.0009
     10 C          66.7370   95.2203   10.2386 C.ar    1  UNL1       -0.0002
     11 C          67.5020   94.2809    9.3541 C.ar    1  UNL1       -0.0000
     12 C          67.7709   92.8763    9.8065 C.ar    1  UNL1       -0.0002
     13 C          67.2748   92.4111   11.1434 C.ar    1  UNL1       -0.0009
     14 C          63.7697   89.4447   15.2026 C.3     1  UNL1        0.1011
     15 C          63.1032   89.6107   16.5361 C.3     1  UNL1        0.0265
     16 C          63.6881   88.1319   14.4816 C.ar    1  UNL1       -0.0042
     17 C          64.1177   86.8702   15.1698 C.ar    1  UNL1       -0.0027
     18 C          64.0361   85.5574   14.4489 C.ar    1  UNL1       -0.0002
     19 C          63.5250   85.5062   13.0395 C.ar    1  UNL1        0.0014
     20 C          63.0954   86.7679   12.3512 C.ar    1  UNL1       -0.0002
     21 C          63.1770   88.0807   13.0723 C.ar    1  UNL1       -0.0027
     22 C          63.4434   84.1935   12.3186 C.ar    1  UNL1        0.0175
     23 C          63.8264   84.1078   10.8708 C.ar    1  UNL1        0.0064
     24 C          63.7448   82.7951   10.1498 C.ar    1  UNL1        0.0608
     25 C          63.2802   81.5678   10.8764 C.ar    1  UNL1        0.2610
     26 O          63.1986   80.2551   10.1554 O.2     1  UNL1       -0.2670
     27 N          62.8971   81.6534   12.3242 N.ar    1  UNL1       -0.2922
     28 C          62.4325   80.4262   13.0508 C.3     1  UNL1        0.1336
     29 C          62.9787   82.9662   13.0452 C.ar    1  UNL1        0.0783
     30 C          66.6637   94.1770   13.7634 C.3     1  UNL1        0.1864
     31 C          68.6716   93.0647   14.9804 C.3     1  UNL1        0.1743
     32 O          67.6920   94.1937   14.8553 O.3     1  UNL1       -0.3470
@<TRIPOS>BOND
     1    31    32    1
     2    32    30    1
     3     1    30    1
     4     1     8    1
     5     8     9   ar
     6     9    10   ar
     7    10    11   ar
     8    11    12   ar
     9    12    13   ar
    10     1     2    1
    11     2     3    1
    12     3     4    1
    13     4    14    1
    14    14    15    1
    15    14    16    1
    16    16    17   ar
    17    17    18   ar
    18    18    19   ar
    19    19    22    1
    20    22    23   ar
    21    23    24   ar
    22    24    25   ar
    23    25    26    2
    24    25    27   ar
    25    27    28    1
    26    27    29   ar
    27    19    20   ar
    28    20    21   ar
    29     4     5   am
    30     5     6    2
    31     5     7    1
    32     7     1    1
    33    13     8   ar
    34    21    16   ar
    35    29    22   ar
@<TRIPOS>MOLECULE
*****
 32 35 0 0 0
SMALL
GASTEIGER

@<TRIPOS>ATOM
      1 C          66.1066   92.7755   13.4854 C.3     1  UNL1        0.1849
      2 C          65.5565   91.5759   12.7726 C.3     1  UNL1        0.0686
      3 C          64.7812   90.5415   13.5335 C.3     1  UNL1        0.1010
      4 N          64.5561   90.7068   15.0073 N.am    1  UNL1       -0.2438
      5 C          65.1062   91.9065   15.7201 C.2     1  UNL1        0.4052
      6 O          64.8810   92.0718   17.1939 O.2     1  UNL1       -0.2262
      7 O          65.8814   92.9408   14.9592 O.3     1  UNL1       -0.4350
      8 C          66.5799   93.0613   12.0909 C.ar    1  UNL1        0.0161
      9 C          66.1215   94.3016   11.3828 C.ar    1  UNL1       -0.0009
     10 C          66.5948   94.5874    9.9884 C.ar    1  UNL1       -0.0002
     11 C          67.5265   93.6329    9.3022 C.ar    1  UNL1       -0.0000
     12 C          67.9849   92.3926   10.0104 C.ar    1  UNL1       -0.0002
     13 C          67.5116   92.1068   11.4048 C.ar    1  UNL1       -0.0009
     14 C          63.7808   89.6724   15.7682 C.3     1  UNL1        0.1011
     15 C          63.1249   90.0328   17.0683 C.3     1  UNL1        0.0265
     16 C          63.6614   88.2778   15.2292 C.ar    1  UNL1       -0.0042
     17 C          63.5506   87.1162   16.1718 C.ar    1  UNL1       -0.0027
     18 C          63.4312   85.7216   15.6327 C.ar    1  UNL1       -0.0002
     19 C          63.4225   85.4884   14.1509 C.ar    1  UNL1        0.0014
     20 C          63.5333   86.6500   13.2082 C.ar    1  UNL1       -0.0002
     21 C          63.6527   88.0446   13.7474 C.ar    1  UNL1       -0.0027
     22 C          63.3031   84.0938   13.6118 C.ar    1  UNL1        0.0175
     23 C          62.7782   82.9940   14.4864 C.ar    1  UNL1        0.0064
     24 C          62.6587   81.5994   13.9473 C.ar    1  UNL1        0.0608
     25 C          63.0643   81.3044   12.5336 C.ar    1  UNL1        0.2610
     26 O          62.9448   79.9098   11.9945 O.2     1  UNL1       -0.2670
     27 N          63.5892   82.4042   11.6590 N.ar    1  UNL1       -0.2922
     28 C          63.9948   82.1093   10.2453 C.3     1  UNL1        0.1336
     29 C          63.7087   83.7989   12.1981 C.ar    1  UNL1        0.0783
     30 C          66.8211   94.0745   13.7139 C.3     1  UNL1        0.1864
     31 C          68.8073   93.1249   15.0935 C.3     1  UNL1        0.1743
     32 O          67.7962   94.2050   14.8462 O.3     1  UNL1       -0.3470
@<TRIPOS>BOND
     1    31    32    1
     2    32    30    1
     3     1    30    1
     4     1     8    1
     5     8     9   ar
     6     9    10   ar
     7    10    11   ar
     8    11    12   ar
     9    12    13   ar
    10     1     2    1
    11     2     3    1
    12     3     4    1
    13     4    14    1
    14    14    15    1
    15    14    16    1
    16    16    17   ar
    17    17    18   ar
    18    18    19   ar
    19    19    22    1
    20    22    23   ar
    21    23    24   ar
    22    24    25   ar
    23    25    26    2
    24    25    27   ar
    25    27    28    1
    26    27    29   ar
    27    19    20   ar
    28    20    21   ar
    29     4     5   am
    30     5     6    2
    31     5     7    1
    32     7     1    1
    33    13     8   ar
    34    21    16   ar
    35    29    22   ar
