@<TRIPOS>MOLECULE
*****
 38 42 0 0 0
SMALL
GASTEIGER

@<TRIPOS>ATOM
      1 C          60.5363   88.7480    9.7241 C.3     1  UNL1        0.1455
      2 C          59.7679   89.5130    8.6876 C.3     1  UNL1        0.1634
      3 O          59.3456   88.8374    7.4167 O.3     1  UNL1       -0.3507
      4 C          59.6916   87.3968    7.1823 C.3     1  UNL1        0.1598
      5 C          60.4600   86.6318    8.2189 C.3     1  UNL1        0.1093
      6 N          60.8823   87.3074    9.4898 N.3     1  UNL1       -0.1499
      7 C          60.9586   89.4236   10.9951 C.3     1  UNL1        0.1550
      8 C          59.6180   89.6454   11.6301 C.3     1  UNL1        0.0453
      9 C          60.8644   90.0948   12.3332 C.3     1  UNL1        0.0453
     10 O          62.4461   89.4365   10.8014 O.3     1  UNL1       -0.4403
     11 C          66.3286   94.6125   11.7418 C.3     1  UNL1        0.0191
     12 C          65.6294   93.3338   12.0966 C.3     1  UNL1        0.0776
     13 C          64.7369   92.6639   11.0942 C.3     1  UNL1        0.1126
     14 N          64.0377   91.3851   11.4489 N.am    1  UNL1       -0.2433
     15 C          63.1452   90.7153   10.4466 C.2     1  UNL1        0.4048
     16 O          62.9518   91.3243    9.0896 O.2     1  UNL1       -0.2262
     17 C          64.2312   90.7761   12.8061 C.3     1  UNL1        0.1126
     18 C          65.1237   91.4460   13.8084 C.3     1  UNL1        0.0776
     19 C          65.3171   90.8369   15.1656 C.3     1  UNL1        0.0191
     20 N          65.8228   92.7247   13.4536 N.3     1  UNL1       -0.2699
     21 C          66.7154   93.3946   14.4560 C.3     1  UNL1        0.1043
     22 C          68.0890   92.8519   14.7179 C.3     1  UNL1        0.1544
     23 O          68.7534   91.9703   13.7024 O.3     1  UNL1       -0.3805
     24 H          68.2618   91.1376   13.6261 H       1  UNL1        0.2105
     25 S          61.6507   86.5424   10.5263 S.O2    1  UNL1        0.0635
     26 O          60.7920   86.4448   11.5635 O.2     1  UNL1       -0.1528
     27 O          62.8256   86.4634    9.5972 O.2     1  UNL1       -0.1528
     28 C          62.4191   85.7774   11.5629 C.ar    1  UNL1        0.1223
     29 C          63.1085   86.5083   12.6766 C.ar    1  UNL1        0.0208
     30 C          63.8768   85.7433   13.7131 C.ar    1  UNL1        0.0128
     31 C          63.9557   84.2473   13.6359 C.ar    1  UNL1        0.0578
     32 CL         64.7241   83.4823   14.6724 Cl      1  UNL1       -0.0822
     33 C          63.2663   83.5164   12.5222 C.ar    1  UNL1        0.0128
     34 C          62.4979   84.2815   11.4856 C.ar    1  UNL1        0.0208
     35 C          60.8060   85.1912    7.9846 C.3     1  UNL1        0.0203
     36 C          61.5382   84.7888    6.7388 C.3     1  UNL1        0.0015
     37 C          62.7871   84.7908    5.9080 C.3     1  UNL1        0.0000
     38 C          61.5574   84.0898    5.4118 C.3     1  UNL1        0.0000
@<TRIPOS>BOND
     1    12    11    1
     2    12    13    1
     3    13    14    1
     4    14    15   am
     5    15    16    2
     6    15    10    1
     7    10     7    1
     8     1     7    1
     9     1     2    1
    10     2     3    1
    11     3     4    1
    12     4     5    1
    13     5    35    1
    14    35    36    1
    15    36    37    1
    16    37    38    1
    17     5     6    1
    18     6    25    1
    19    25    26    2
    20    25    27    2
    21    25    28    1
    22    28    29   ar
    23    29    30   ar
    24    30    31   ar
    25    31    32    1
    26    31    33   ar
    27    33    34   ar
    28     7     8    1
    29     8     9    1
    30    14    17    1
    31    17    18    1
    32    18    19    1
    33    18    20    1
    34    20    21    1
    35    21    22    1
    36    22    23    1
    37    20    12    1
    38     9     7    1
    39     6     1    1
    40    34    28   ar
    41    38    36    1
    42    23    24    1
@<TRIPOS>MOLECULE
*****
 38 42 0 0 0
SMALL
GASTEIGER

@<TRIPOS>ATOM
      1 C          62.8862   90.1180   11.4553 C.3     1  UNL1        0.1455
      2 C          63.0521   90.9245   10.2015 C.3     1  UNL1        0.1634
      3 O          64.0748   92.0203   10.1445 O.3     1  UNL1       -0.3507
      4 C          64.9317   92.3096   11.3412 C.3     1  UNL1        0.1598
      5 C          64.7658   91.5030   12.5950 C.3     1  UNL1        0.1093
      6 N          63.7430   90.4072   12.6520 N.3     1  UNL1       -0.1499
      7 C          61.8634   89.0222   11.5123 C.3     1  UNL1        0.1550
      8 C          60.6192   89.8125   11.2347 C.3     1  UNL1        0.0453
      9 C          60.5320   88.3330   11.4661 C.3     1  UNL1        0.0453
     10 O          62.7526   87.8512   11.8098 O.3     1  UNL1       -0.4403
     11 C          63.1423   81.4919   10.3414 C.3     1  UNL1        0.0191
     12 C          63.1825   82.7065   11.2205 C.3     1  UNL1        0.0776
     13 C          62.9273   84.0642   10.6360 C.3     1  UNL1        0.1126
     14 N          62.9675   85.2789   11.5151 N.am    1  UNL1       -0.2433
     15 C          62.7123   86.6366   10.9307 C.2     1  UNL1        0.4048
     16 O          62.4169   86.7795    9.4671 O.2     1  UNL1       -0.2262
     17 C          63.2630   85.1359   12.9789 C.3     1  UNL1        0.1126
     18 C          63.5182   83.7783   13.5633 C.3     1  UNL1        0.0776
     19 C          63.8137   83.6353   15.0270 C.3     1  UNL1        0.0191
     20 N          63.4780   82.5636   12.6842 N.3     1  UNL1       -0.2699
     21 C          63.7332   81.2059   13.2687 C.3     1  UNL1        0.1043
     22 C          62.5909   80.3902   13.7975 C.3     1  UNL1        0.1544
     23 O          61.4561   81.0629   14.5113 O.3     1  UNL1       -0.3805
     24 H          61.7787   81.4474   15.3413 H       1  UNL1        0.2105
     25 S          63.5772   89.6007   13.9058 S.O2    1  UNL1        0.0635
     26 O          64.5985   88.7187   13.8643 O.2     1  UNL1       -0.1528
     27 O          62.3664   90.4094   14.2660 O.2     1  UNL1       -0.1528
     28 C          63.4113   88.7940   15.1596 C.ar    1  UNL1        0.1223
     29 C          62.9015   89.4475   16.4098 C.ar    1  UNL1        0.0208
     30 C          62.7356   88.6409   17.6636 C.ar    1  UNL1        0.0128
     31 C          63.0797   87.1809   17.6671 C.ar    1  UNL1        0.0578
     32 CL         62.9138   86.3743   18.9209 Cl      1  UNL1       -0.0822
     33 C          63.5896   86.5275   16.4169 C.ar    1  UNL1        0.0128
     34 C          63.7554   87.3341   15.1631 C.ar    1  UNL1        0.0208
     35 C          65.6226   91.7922   13.7917 C.3     1  UNL1        0.0203
     36 C          67.1127   91.8806   13.6435 C.3     1  UNL1        0.0015
     37 C          68.4602   92.1876   14.2266 C.3     1  UNL1        0.0000
     38 C          68.3460   91.7266   12.8038 C.3     1  UNL1        0.0000
@<TRIPOS>BOND
     1    12    11    1
     2    12    13    1
     3    13    14    1
     4    14    15   am
     5    15    16    2
     6    15    10    1
     7    10     7    1
     8     1     7    1
     9     1     2    1
    10     2     3    1
    11     3     4    1
    12     4     5    1
    13     5    35    1
    14    35    36    1
    15    36    37    1
    16    37    38    1
    17     5     6    1
    18     6    25    1
    19    25    26    2
    20    25    27    2
    21    25    28    1
    22    28    29   ar
    23    29    30   ar
    24    30    31   ar
    25    31    32    1
    26    31    33   ar
    27    33    34   ar
    28     7     8    1
    29     8     9    1
    30    14    17    1
    31    17    18    1
    32    18    19    1
    33    18    20    1
    34    20    21    1
    35    21    22    1
    36    22    23    1
    37    20    12    1
    38     9     7    1
    39     6     1    1
    40    34    28   ar
    41    38    36    1
    42    23    24    1
@<TRIPOS>MOLECULE
*****
 38 42 0 0 0
SMALL
GASTEIGER

@<TRIPOS>ATOM
      1 C          64.6205   90.6149   14.6578 C.3     1  UNL1        0.1455
      2 C          65.6965   91.2778   15.4658 C.3     1  UNL1        0.1634
      3 O          66.5782   92.3138   14.8339 O.3     1  UNL1       -0.3507
      4 C          66.3840   92.6869   13.3941 C.3     1  UNL1        0.1598
      5 C          65.3079   92.0239   12.5861 C.3     1  UNL1        0.1093
      6 N          64.4262   90.9880   13.2181 N.3     1  UNL1       -0.1499
      7 C          63.7387   89.5789   15.2897 C.3     1  UNL1        0.1550
      8 C          63.1569   90.3830   16.4144 C.3     1  UNL1        0.0453
      9 C          62.7613   88.9471   16.2360 C.3     1  UNL1        0.0453
     10 O          64.0144   88.4150   14.3845 O.3     1  UNL1       -0.4403
     11 C          63.3550   81.9105   14.3084 C.3     1  UNL1        0.0191
     12 C          63.3284   83.3033   13.7523 C.3     1  UNL1        0.0776
     13 C          63.6980   84.4663   14.6246 C.3     1  UNL1        0.1126
     14 N          63.6714   85.8591   14.0685 N.am    1  UNL1       -0.2433
     15 C          64.0410   87.0222   14.9406 C.2     1  UNL1        0.4048
     16 O          64.4372   86.7923   16.3689 O.2     1  UNL1       -0.2262
     17 C          63.2751   86.0890   12.6400 C.3     1  UNL1        0.1126
     18 C          62.9055   84.9259   11.7679 C.3     1  UNL1        0.0776
     19 C          62.5093   85.1558   10.3395 C.3     1  UNL1        0.0191
     20 N          62.9321   83.5331   12.3240 N.3     1  UNL1       -0.2699
     21 C          62.5625   82.3701   11.4518 C.3     1  UNL1        0.1043
     22 C          63.6191   81.6658   10.6533 C.3     1  UNL1        0.1544
     23 O          64.7996   82.4303   10.1319 O.3     1  UNL1       -0.3805
     24 H          64.5010   83.0758    9.4723 H       1  UNL1        0.2105
     25 S          63.3502   90.3251   12.4101 S.O2    1  UNL1        0.0635
     26 O          63.9310   89.1929   11.9590 O.2     1  UNL1       -0.1528
     27 O          62.4167   91.4562   12.7251 O.2     1  UNL1       -0.1528
     28 C          62.2742   89.6621   11.6021 C.ar    1  UNL1        0.1223
     29 C          62.6099   89.0219   10.2879 C.ar    1  UNL1        0.0208
     30 C          61.5340   88.3590    9.4799 C.ar    1  UNL1        0.0128
     31 C          60.1221   88.3364    9.9863 C.ar    1  UNL1        0.0578
     32 CL         59.0462   87.6735    9.1783 Cl      1  UNL1       -0.0822
     33 C          59.7864   88.9766   11.3005 C.ar    1  UNL1        0.0128
     34 C          60.8624   89.6396   12.1085 C.ar    1  UNL1        0.0208
     35 C          65.1136   92.3970   11.1464 C.3     1  UNL1        0.0203
     36 C          66.2423   93.0102   10.3716 C.3     1  UNL1        0.0015
     37 C          67.5628   92.8750    9.6730 C.3     1  UNL1        0.0000
     38 C          66.8765   94.2076    9.7283 C.3     1  UNL1        0.0000
@<TRIPOS>BOND
     1    12    11    1
     2    12    13    1
     3    13    14    1
     4    14    15   am
     5    15    16    2
     6    15    10    1
     7    10     7    1
     8     1     7    1
     9     1     2    1
    10     2     3    1
    11     3     4    1
    12     4     5    1
    13     5    35    1
    14    35    36    1
    15    36    37    1
    16    37    38    1
    17     5     6    1
    18     6    25    1
    19    25    26    2
    20    25    27    2
    21    25    28    1
    22    28    29   ar
    23    29    30   ar
    24    30    31   ar
    25    31    32    1
    26    31    33   ar
    27    33    34   ar
    28     7     8    1
    29     8     9    1
    30    14    17    1
    31    17    18    1
    32    18    19    1
    33    18    20    1
    34    20    21    1
    35    21    22    1
    36    22    23    1
    37    20    12    1
    38     9     7    1
    39     6     1    1
    40    34    28   ar
    41    38    36    1
    42    23    24    1
@<TRIPOS>MOLECULE
*****
 38 42 0 0 0
SMALL
GASTEIGER

@<TRIPOS>ATOM
      1 C          62.1040   86.5775   10.4984 C.3     1  UNL1        0.1455
      2 C          62.0934   86.3856    9.0108 C.3     1  UNL1        0.1634
      3 O          62.8280   85.2299    8.3985 O.3     1  UNL1       -0.3507
      4 C          63.5730   84.2662    9.2737 C.3     1  UNL1        0.1598
      5 C          63.5835   84.4581   10.7615 C.3     1  UNL1        0.1093
      6 N          62.8490   85.6138   11.3737 N.3     1  UNL1       -0.1499
      7 C          61.3694   87.7331   11.1108 C.3     1  UNL1        0.1550
      8 C          59.9657   87.3937   10.7055 C.3     1  UNL1        0.0453
      9 C          60.2359   88.6315   11.5085 C.3     1  UNL1        0.0453
     10 O          62.5181   88.4740   11.7286 O.3     1  UNL1       -0.4403
     11 C          65.8900   94.0541   11.2366 C.3     1  UNL1        0.0191
     12 C          65.3269   92.8415   11.9166 C.3     1  UNL1        0.0776
     13 C          64.4856   91.8703   11.1426 C.3     1  UNL1        0.1126
     14 N          63.9225   90.6577   11.8226 N.am    1  UNL1       -0.2433
     15 C          63.0812   89.6866   11.0486 C.2     1  UNL1        0.4048
     16 O          62.8031   89.9281    9.5946 O.2     1  UNL1       -0.2262
     17 C          64.2006   90.4163   13.2767 C.3     1  UNL1        0.1126
     18 C          65.0419   91.3874   14.0507 C.3     1  UNL1        0.0776
     19 C          65.3201   91.1459   15.5048 C.3     1  UNL1        0.0191
     20 N          65.6050   92.6000   13.3707 N.3     1  UNL1       -0.2699
     21 C          66.4463   93.5712   14.1447 C.3     1  UNL1        0.1043
     22 C          67.8111   93.1689   14.6194 C.3     1  UNL1        0.1544
     23 O          68.5707   92.0962   13.8967 O.3     1  UNL1       -0.3805
     24 H          68.1081   91.2494   13.9964 H       1  UNL1        0.2105
     25 S          62.8595   85.8057   12.8613 S.O2    1  UNL1        0.0635
     26 O          63.8907   86.6505   13.0744 O.2     1  UNL1       -0.1528
     27 O          61.6813   84.8861   12.9884 O.2     1  UNL1       -0.1528
     28 C          62.8700   85.9976   14.3491 C.ar    1  UNL1        0.1223
     29 C          63.4791   87.2337   14.9415 C.ar    1  UNL1        0.0208
     30 C          63.4897   87.4256   16.4291 C.ar    1  UNL1        0.0128
     31 C          62.8910   86.3814   17.3243 C.ar    1  UNL1        0.0578
     32 CL         62.9016   86.5733   18.8119 Cl      1  UNL1       -0.0822
     33 C          62.2819   85.1453   16.7319 C.ar    1  UNL1        0.0128
     34 C          62.2714   84.9534   15.2441 C.ar    1  UNL1        0.0208
     35 C          64.3285   83.4944   11.6367 C.3     1  UNL1        0.0203
     36 C          63.6424   82.2636   12.1509 C.3     1  UNL1        0.0015
     37 C          62.8730   81.0019   11.8938 C.3     1  UNL1        0.0000
     38 C          63.2235   81.3935   13.2986 C.3     1  UNL1        0.0000
@<TRIPOS>BOND
     1    12    11    1
     2    12    13    1
     3    13    14    1
     4    14    15   am
     5    15    16    2
     6    15    10    1
     7    10     7    1
     8     1     7    1
     9     1     2    1
    10     2     3    1
    11     3     4    1
    12     4     5    1
    13     5    35    1
    14    35    36    1
    15    36    37    1
    16    37    38    1
    17     5     6    1
    18     6    25    1
    19    25    26    2
    20    25    27    2
    21    25    28    1
    22    28    29   ar
    23    29    30   ar
    24    30    31   ar
    25    31    32    1
    26    31    33   ar
    27    33    34   ar
    28     7     8    1
    29     8     9    1
    30    14    17    1
    31    17    18    1
    32    18    19    1
    33    18    20    1
    34    20    21    1
    35    21    22    1
    36    22    23    1
    37    20    12    1
    38     9     7    1
    39     6     1    1
    40    34    28   ar
    41    38    36    1
    42    23    24    1
@<TRIPOS>MOLECULE
*****
 38 42 0 0 0
SMALL
GASTEIGER

@<TRIPOS>ATOM
      1 C          63.7749   90.4507   14.4877 C.3     1  UNL1        0.1455
      2 C          63.0410   90.0799   15.7423 C.3     1  UNL1        0.1634
      3 O          63.3407   90.7960   17.0258 O.3     1  UNL1       -0.3507
      4 C          64.3741   91.8827   17.0548 C.3     1  UNL1        0.1598
      5 C          65.1080   92.2534   15.8002 C.3     1  UNL1        0.1093
      6 N          64.8084   91.5374   14.5167 N.3     1  UNL1       -0.1499
      7 C          63.4753   89.7346   13.2041 C.3     1  UNL1        0.1550
      8 C          62.4705   90.6761   12.6091 C.3     1  UNL1        0.0453
      9 C          62.8628   89.4319   11.8687 C.3     1  UNL1        0.0453
     10 O          64.3760   88.5445   13.3533 O.3     1  UNL1       -0.4403
     11 C          62.3166   82.5492   14.9551 C.3     1  UNL1        0.0191
     12 C          62.7039   83.6729   14.0400 C.3     1  UNL1        0.0776
     13 C          63.1527   84.9851   14.6118 C.3     1  UNL1        0.1126
     14 N          63.5399   86.1087   13.6967 N.am    1  UNL1       -0.2433
     15 C          63.9887   87.4208   14.2684 C.2     1  UNL1        0.4048
     16 O          64.0502   87.6093   15.7552 O.2     1  UNL1       -0.2262
     17 C          63.4785   85.9202   12.2098 C.3     1  UNL1        0.1126
     18 C          63.0297   84.6081   11.6381 C.3     1  UNL1        0.0776
     19 C          62.9682   84.4196   10.1512 C.3     1  UNL1        0.0191
     20 N          62.6424   83.4844   12.5532 N.3     1  UNL1       -0.2699
     21 C          62.1936   82.1723   11.9814 C.3     1  UNL1        0.1043
     22 C          63.1522   81.0213   11.9028 C.3     1  UNL1        0.1544
     23 O          62.6719   79.6256   12.1697 O.3     1  UNL1       -0.3805
     24 H          62.4018   79.5486   13.0982 H       1  UNL1        0.2105
     25 S          65.5423   91.9081   13.2621 S.O2    1  UNL1        0.0635
     26 O          64.6888   92.7302   12.6152 O.2     1  UNL1       -0.1528
     27 O          66.7026   91.0593   13.6899 O.2     1  UNL1       -0.1528
     28 C          66.2762   92.2789   12.0075 C.ar    1  UNL1        0.1223
     29 C          67.6353   91.7053   11.7363 C.ar    1  UNL1        0.0208
     30 C          68.3692   92.0760   10.4817 C.ar    1  UNL1        0.0128
     31 C          67.7439   93.0205    9.4983 C.ar    1  UNL1        0.0578
     32 CL         68.4778   93.3912    8.2438 Cl      1  UNL1       -0.0822
     33 C          66.3847   93.5941    9.7695 C.ar    1  UNL1        0.0128
     34 C          65.6508   93.2234   11.0242 C.ar    1  UNL1        0.0208
     35 C          66.1415   93.3402   15.8292 C.3     1  UNL1        0.0203
     36 C          67.5966   92.9890   15.9266 C.3     1  UNL1        0.0015
     37 C          68.6892   92.1187   16.4733 C.3     1  UNL1        0.0000
     38 C          69.0243   93.2512   15.5486 C.3     1  UNL1        0.0000
@<TRIPOS>BOND
     1    12    11    1
     2    12    13    1
     3    13    14    1
     4    14    15   am
     5    15    16    2
     6    15    10    1
     7    10     7    1
     8     1     7    1
     9     1     2    1
    10     2     3    1
    11     3     4    1
    12     4     5    1
    13     5    35    1
    14    35    36    1
    15    36    37    1
    16    37    38    1
    17     5     6    1
    18     6    25    1
    19    25    26    2
    20    25    27    2
    21    25    28    1
    22    28    29   ar
    23    29    30   ar
    24    30    31   ar
    25    31    32    1
    26    31    33   ar
    27    33    34   ar
    28     7     8    1
    29     8     9    1
    30    14    17    1
    31    17    18    1
    32    18    19    1
    33    18    20    1
    34    20    21    1
    35    21    22    1
    36    22    23    1
    37    20    12    1
    38     9     7    1
    39     6     1    1
    40    34    28   ar
    41    38    36    1
    42    23    24    1
@<TRIPOS>MOLECULE
*****
 38 42 0 0 0
SMALL
GASTEIGER

@<TRIPOS>ATOM
      1 C          60.7109   88.5436    9.8834 C.3     1  UNL1        0.1455
      2 C          60.0417   89.4320    8.8771 C.3     1  UNL1        0.1634
      3 O          59.6478   88.8841    7.5374 O.3     1  UNL1       -0.3507
      4 C          59.9232   87.4478    7.2040 C.3     1  UNL1        0.1598
      5 C          60.5925   86.5593    8.2105 C.3     1  UNL1        0.1093
      6 N          60.9863   87.1073    9.5501 N.3     1  UNL1       -0.1499
      7 C          61.1048   89.0915   11.2231 C.3     1  UNL1        0.1550
      8 C          59.7551   89.4706   11.7565 C.3     1  UNL1        0.0453
      9 C          60.9824   89.7049   12.5864 C.3     1  UNL1        0.0453
     10 O          62.5913   88.9027   11.1549 O.3     1  UNL1       -0.4403
     11 C          66.7409   92.3560   14.8434 C.3     1  UNL1        0.0191
     12 C          65.8904   92.0506   13.6463 C.3     1  UNL1        0.0776
     13 C          65.0913   90.7820   13.5978 C.3     1  UNL1        0.1126
     14 N          64.2409   90.4766   12.4006 N.am    1  UNL1       -0.2433
     15 C          63.4418   89.2081   12.3521 C.2     1  UNL1        0.4048
     16 O          63.4933   88.2450   13.5009 O.2     1  UNL1       -0.2262
     17 C          64.1894   91.4398   11.2518 C.3     1  UNL1        0.1126
     18 C          64.9884   92.7083   11.3003 C.3     1  UNL1        0.0776
     19 C          64.9369   93.6714   10.1514 C.3     1  UNL1        0.0191
     20 N          65.8389   93.0137   12.4974 N.3     1  UNL1       -0.2699
     21 C          66.6379   94.2823   12.5459 C.3     1  UNL1        0.1043
     22 C          66.3039   95.4148   11.6209 C.3     1  UNL1        0.1544
     23 O          65.7096   96.6791   12.1672 O.3     1  UNL1       -0.3805
     24 H          64.8263   96.4939   12.5226 H       1  UNL1        0.2105
     25 S          61.6556   86.2188   10.5564 S.O2    1  UNL1        0.0635
     26 O          60.8197   86.2383   11.6164 O.2     1  UNL1       -0.1528
     27 O          62.7797   85.9749    9.5937 O.2     1  UNL1       -0.1528
     28 C          62.3249   85.3303   11.5628 C.ar    1  UNL1        0.1223
     29 C          63.1801   84.1872   11.1027 C.ar    1  UNL1        0.0208
     30 C          63.8494   83.2987   12.1091 C.ar    1  UNL1        0.0128
     31 C          63.6633   83.5534   13.5756 C.ar    1  UNL1        0.0578
     32 CL         64.3325   82.6649   14.5819 Cl      1  UNL1       -0.0822
     33 C          62.8080   84.6965   14.0357 C.ar    1  UNL1        0.0128
     34 C          62.1387   85.5850   13.0292 C.ar    1  UNL1        0.0208
     35 C          60.8679   85.1230    7.8772 C.3     1  UNL1        0.0203
     36 C          61.6130   84.7737    6.6230 C.3     1  UNL1        0.0015
     37 C          61.6425   84.1425    5.2626 C.3     1  UNL1        0.0000
     38 C          62.8741   84.7997    5.8113 C.3     1  UNL1        0.0000
@<TRIPOS>BOND
     1    12    11    1
     2    12    13    1
     3    13    14    1
     4    14    15   am
     5    15    16    2
     6    15    10    1
     7    10     7    1
     8     1     7    1
     9     1     2    1
    10     2     3    1
    11     3     4    1
    12     4     5    1
    13     5    35    1
    14    35    36    1
    15    36    37    1
    16    37    38    1
    17     5     6    1
    18     6    25    1
    19    25    26    2
    20    25    27    2
    21    25    28    1
    22    28    29   ar
    23    29    30   ar
    24    30    31   ar
    25    31    32    1
    26    31    33   ar
    27    33    34   ar
    28     7     8    1
    29     8     9    1
    30    14    17    1
    31    17    18    1
    32    18    19    1
    33    18    20    1
    34    20    21    1
    35    21    22    1
    36    22    23    1
    37    20    12    1
    38     9     7    1
    39     6     1    1
    40    34    28   ar
    41    38    36    1
    42    23    24    1
@<TRIPOS>MOLECULE
*****
 38 42 0 0 0
SMALL
GASTEIGER

@<TRIPOS>ATOM
      1 C          63.6743   90.5264   14.2137 C.3     1  UNL1        0.1455
      2 C          62.9443   90.0727   15.4430 C.3     1  UNL1        0.1634
      3 O          63.2987   90.6496   16.7816 O.3     1  UNL1       -0.3507
      4 C          64.3832   91.6801   16.8907 C.3     1  UNL1        0.1598
      5 C          65.1133   92.1337   15.6614 C.3     1  UNL1        0.1093
      6 N          64.7588   91.5568   14.3229 N.3     1  UNL1       -0.1499
      7 C          63.3199   89.9495   12.8752 C.3     1  UNL1        0.1550
      8 C          62.9056   91.1982   12.1548 C.3     1  UNL1        0.0453
      9 C          62.8643   89.8758   11.4480 C.3     1  UNL1        0.0453
     10 O          63.6112   88.5003   13.1307 O.3     1  UNL1       -0.4403
     11 C          62.5211   82.4630   10.8699 C.3     1  UNL1        0.0191
     12 C          62.9927   83.5052   11.8400 C.3     1  UNL1        0.0776
     13 C          62.8303   84.9606   11.5152 C.3     1  UNL1        0.1126
     14 N          63.3019   86.0028   12.4853 N.am    1  UNL1       -0.2433
     15 C          63.1395   87.4581   12.1605 C.2     1  UNL1        0.4048
     16 O          62.5054   87.8712   10.8655 O.2     1  UNL1       -0.2262
     17 C          63.9360   85.5896   13.7805 C.3     1  UNL1        0.1126
     18 C          64.0984   84.1343   14.1053 C.3     1  UNL1        0.0776
     19 C          64.7326   83.7211   15.4005 C.3     1  UNL1        0.0191
     20 N          63.6268   83.0921   13.1351 N.3     1  UNL1       -0.2699
     21 C          63.7892   81.6367   13.4600 C.3     1  UNL1        0.1043
     22 C          62.6943   80.9008   14.1738 C.3     1  UNL1        0.1544
     23 O          61.4005   81.5949   14.4809 O.3     1  UNL1       -0.3805
     24 H          61.5597   82.3078   15.1191 H       1  UNL1        0.2105
     25 S          65.4889   92.0105   13.0936 S.O2    1  UNL1        0.0635
     26 O          64.7966   93.0946   12.6839 O.2     1  UNL1       -0.1528
     27 O          66.4638   90.8822   13.2561 O.2     1  UNL1       -0.1528
     28 C          66.2190   92.4641   11.8642 C.ar    1  UNL1        0.1223
     29 C          65.6346   93.5415   10.9996 C.ar    1  UNL1        0.0208
     30 C          66.3646   93.9951    9.7703 C.ar    1  UNL1        0.0128
     31 C          67.6792   93.3714    9.4057 C.ar    1  UNL1        0.0578
     32 CL         68.4093   93.8250    8.1764 Cl      1  UNL1       -0.0822
     33 C          68.2636   92.2940   10.2703 C.ar    1  UNL1        0.0128
     34 C          67.5335   91.8404   11.4997 C.ar    1  UNL1        0.0208
     35 C          66.1978   93.1642   15.7706 C.3     1  UNL1        0.0203
     36 C          67.6373   92.7486   15.6992 C.3     1  UNL1        0.0015
     37 C          68.8833   92.2594   16.3762 C.3     1  UNL1        0.0000
     38 C          68.8846   92.5179   14.8986 C.3     1  UNL1        0.0000
@<TRIPOS>BOND
     1    12    11    1
     2    12    13    1
     3    13    14    1
     4    14    15   am
     5    15    16    2
     6    15    10    1
     7    10     7    1
     8     1     7    1
     9     1     2    1
    10     2     3    1
    11     3     4    1
    12     4     5    1
    13     5    35    1
    14    35    36    1
    15    36    37    1
    16    37    38    1
    17     5     6    1
    18     6    25    1
    19    25    26    2
    20    25    27    2
    21    25    28    1
    22    28    29   ar
    23    29    30   ar
    24    30    31   ar
    25    31    32    1
    26    31    33   ar
    27    33    34   ar
    28     7     8    1
    29     8     9    1
    30    14    17    1
    31    17    18    1
    32    18    19    1
    33    18    20    1
    34    20    21    1
    35    21    22    1
    36    22    23    1
    37    20    12    1
    38     9     7    1
    39     6     1    1
    40    34    28   ar
    41    38    36    1
    42    23    24    1
