@<TRIPOS>MOLECULE
*****
 41 43 0 0 0
SMALL
GASTEIGER

@<TRIPOS>ATOM
      1 C          61.2741   94.5815    0.1463 C.3     1  UNL1        0.1086
      2 O          60.0179   93.8234   -0.1652 O.3     1  UNL1       -0.3826
      3 H          59.5428   94.2669   -0.8853 H       1  UNL1        0.2107
      4 C          61.6093   93.5862    1.2172 C.3     1  UNL1        0.0485
      5 C          62.9764   92.9711    1.2681 C.3     1  UNL1        0.0061
      6 C          63.3116   91.9757    2.3391 C.3     1  UNL1        0.0217
      7 C          62.2796   91.5954    3.3590 C.3     1  UNL1        0.0934
      8 N          60.9124   92.2104    3.3080 N.am    1  UNL1       -0.2794
      9 C          59.8804   91.8300    4.3280 C.2     1  UNL1        0.2257
     10 O          58.5132   92.4451    4.2771 O.2     1  UNL1       -0.2749
     11 C          60.5773   93.2058    2.2372 C.3     1  UNL1        0.0960
     12 C          60.2155   90.8346    5.3989 C.3     1  UNL1        0.0867
     13 C          59.1333   89.9894    6.0024 C.3     1  UNL1        0.0266
     14 C          59.4170   89.1684    7.2254 C.3     1  UNL1        0.0691
     15 N          58.9611   87.7409    7.2928 N.3     1  UNL1       -0.2963
     16 C          59.7892   86.7228    8.0191 C.3     1  UNL1        0.0859
     17 H          58.8709   87.4149    6.3305 H       1  UNL1        0.1233
     18 C          63.6292   95.4212   -0.5600 C.ar    1  UNL1        0.0257
     19 C          64.8854   96.1792   -0.2485 C.ar    1  UNL1        0.1398
     20 F          65.9842   96.2607   -1.2664 F       1  UNL1       -0.2042
     21 C          65.0430   96.8559    1.0809 C.ar    1  UNL1        0.0296
     22 C          63.9442   96.7745    2.0988 C.ar    1  UNL1        0.0021
     23 C          62.6879   96.0163    1.7872 C.ar    1  UNL1       -0.0019
     24 C          62.5304   95.3397    0.4579 C.ar    1  UNL1        0.0039
     25 C          62.8072   94.8424   -4.3992 C.ar    1  UNL1       -0.0222
     26 C          63.1566   93.3913   -4.5483 C.ar    1  UNL1       -0.0043
     27 C          63.6635   92.6168   -3.3679 C.ar    1  UNL1       -0.0003
     28 C          63.8210   93.2934   -2.0385 C.ar    1  UNL1        0.0000
     29 C          63.4717   94.7445   -1.8895 C.ar    1  UNL1        0.0016
     30 C          62.9647   95.5190   -3.0698 C.ar    1  UNL1       -0.0042
     31 C          61.8015   94.8918   -6.7942 C.3     1  UNL1        0.0050
     32 C          62.3003   95.6169   -5.5796 C.3     1  UNL1        0.0264
     33 C          60.9390   95.5769   -0.9246 C.3     1  UNL1        0.0330
     34 C          60.0590   96.7501   -0.6093 C.3     1  UNL1        0.0241
     35 C          58.5941   96.6957   -0.9273 C.3     1  UNL1        0.0928
     36 N          57.7875   95.4909   -0.5429 N.am    1  UNL1       -0.2707
     37 C          57.0037   94.7495   -1.5850 C.2     1  UNL1        0.4017
     38 O          57.0266   95.2128   -3.0115 O.2     1  UNL1       -0.2264
     39 H          57.7724   95.1868    0.3933 H       1  UNL1        0.1527
     40 O          56.1970   93.5447   -1.2006 O.3     1  UNL1       -0.4306
     41 C          56.0056   92.4261   -2.1816 C.3     1  UNL1        0.2573
@<TRIPOS>BOND
     1    31    32    1
     2    32    25    1
     3    25    26   ar
     4    26    27   ar
     5    27    28   ar
     6    28    29   ar
     7    29    18    1
     8    18    19   ar
     9    19    20    1
    10    19    21   ar
    11    21    22   ar
    12    22    23   ar
    13    23    24   ar
    14    24     1    1
    15     1     2    1
    16     1    33    1
    17    33    34    1
    18    34    35    1
    19    35    36    1
    20    36    37   am
    21    37    38    2
    22    37    40    1
    23    40    41    1
    24     4     1    1
    25     4     5    1
    26     5     6    1
    27     6     7    1
    28     7     8    1
    29     8     9   am
    30     9    10    2
    31     9    12    1
    32    12    13    1
    33    13    14    1
    34    14    15    1
    35    15    16    1
    36     8    11    1
    37    29    30   ar
    38    30    25   ar
    39    24    18   ar
    40    11     4    1
    41     2     3    1
    42    36    39    1
    43    15    17    1
@<TRIPOS>MOLECULE
*****
 41 43 0 0 0
SMALL
GASTEIGER

@<TRIPOS>ATOM
      1 C          63.5411   89.6452   12.7653 C.3     1  UNL1        0.1086
      2 O          63.4319   89.1098   11.3684 O.3     1  UNL1       -0.3826
      3 H          63.2586   89.8407   10.7546 H       1  UNL1        0.2107
      4 C          63.7867   88.2572   13.2781 C.3     1  UNL1        0.0485
      5 C          64.5996   88.0499   14.5215 C.3     1  UNL1        0.0061
      6 C          64.8452   86.6618   15.0343 C.3     1  UNL1        0.0217
      7 C          64.2779   85.4810   14.3036 C.3     1  UNL1        0.0934
      8 N          63.4650   85.6883   13.0602 N.am    1  UNL1       -0.2794
      9 C          62.8977   84.5074   12.3295 C.2     1  UNL1        0.2257
     10 O          62.0848   84.7147   11.0860 O.2     1  UNL1       -0.2749
     11 C          63.2194   87.0763   12.5474 C.3     1  UNL1        0.0960
     12 C          63.1433   83.1194   12.8423 C.3     1  UNL1        0.0867
     13 C          62.9907   81.9429   11.9244 C.3     1  UNL1        0.0266
     14 C          62.7307   80.5785   12.4909 C.3     1  UNL1        0.0691
     15 N          62.1636   80.4355   13.8721 N.3     1  UNL1       -0.2963
     16 C          60.7142   80.7301   14.1220 C.3     1  UNL1        0.0859
     17 H          62.6992   81.0587   14.4763 H       1  UNL1        0.1233
     18 C          64.7179   91.1782   14.5018 C.ar    1  UNL1        0.0257
     19 C          64.8272   91.7136   15.8987 C.ar    1  UNL1        0.1398
     20 F          65.8946   92.7112   16.2381 F       1  UNL1       -0.2042
     21 C          63.8689   91.2513   16.9562 C.ar    1  UNL1        0.0296
     22 C          62.8015   90.2537   16.6167 C.ar    1  UNL1        0.0021
     23 C          62.6922   89.7184   15.2197 C.ar    1  UNL1       -0.0019
     24 C          63.6504   90.1806   14.1623 C.ar    1  UNL1        0.0039
     25 C          66.1749   93.0553   11.3231 C.ar    1  UNL1       -0.0222
     26 C          67.5924   92.5649   11.3293 C.ar    1  UNL1       -0.0043
     27 C          68.0517   91.6122   12.3930 C.ar    1  UNL1       -0.0003
     28 C          67.0936   91.1500   13.4505 C.ar    1  UNL1        0.0000
     29 C          65.6761   91.6404   13.4443 C.ar    1  UNL1        0.0016
     30 C          65.2167   92.5931   12.3806 C.ar    1  UNL1       -0.0042
     31 C          65.7939   95.4876   10.4931 C.3     1  UNL1        0.0050
     32 C          65.7155   94.0080   10.2595 C.3     1  UNL1        0.0264
     33 C          63.2955   91.0332   12.2525 C.3     1  UNL1        0.0330
     34 C          62.5502   91.2369   10.9668 C.3     1  UNL1        0.0241
     35 C          61.1329   90.7629   10.8383 C.3     1  UNL1        0.0928
     36 N          60.7637   89.7850    9.7624 N.am    1  UNL1       -0.2707
     37 C          60.2101   88.4400   10.1291 C.2     1  UNL1        0.4017
     38 O          60.0258   88.0728   11.5718 O.2     1  UNL1       -0.2264
     39 H          60.8847   90.0261    8.8156 H       1  UNL1        0.1527
     40 O          59.8409   87.4622    9.0532 O.3     1  UNL1       -0.4306
     41 C          59.2891   87.9556    7.7486 C.3     1  UNL1        0.2573
@<TRIPOS>BOND
     1    31    32    1
     2    32    25    1
     3    25    26   ar
     4    26    27   ar
     5    27    28   ar
     6    28    29   ar
     7    29    18    1
     8    18    19   ar
     9    19    20    1
    10    19    21   ar
    11    21    22   ar
    12    22    23   ar
    13    23    24   ar
    14    24     1    1
    15     1     2    1
    16     1    33    1
    17    33    34    1
    18    34    35    1
    19    35    36    1
    20    36    37   am
    21    37    38    2
    22    37    40    1
    23    40    41    1
    24     4     1    1
    25     4     5    1
    26     5     6    1
    27     6     7    1
    28     7     8    1
    29     8     9   am
    30     9    10    2
    31     9    12    1
    32    12    13    1
    33    13    14    1
    34    14    15    1
    35    15    16    1
    36     8    11    1
    37    29    30   ar
    38    30    25   ar
    39    24    18   ar
    40    11     4    1
    41     2     3    1
    42    36    39    1
    43    15    17    1
@<TRIPOS>MOLECULE
*****
 41 43 0 0 0
SMALL
GASTEIGER

@<TRIPOS>ATOM
      1 C          60.7814   94.9871    0.8596 C.3     1  UNL1        0.1086
      2 O          59.5891   95.2624    1.7270 O.3     1  UNL1       -0.3826
      3 H          59.0918   96.0122    1.3646 H       1  UNL1        0.2107
      4 C          61.1756   93.8546    1.7607 C.3     1  UNL1        0.0485
      5 C          62.5591   93.2805    1.6824 C.3     1  UNL1        0.0061
      6 C          62.9532   92.1479    2.5836 C.3     1  UNL1        0.0217
      7 C          61.9638   91.5896    3.5630 C.3     1  UNL1        0.0934
      8 N          60.5802   92.1637    3.6413 N.am    1  UNL1       -0.2794
      9 C          59.5908   91.6053    4.6207 C.2     1  UNL1        0.2257
     10 O          58.2072   92.1794    4.6990 O.2     1  UNL1       -0.2749
     11 C          60.1861   93.2962    2.7401 C.3     1  UNL1        0.0960
     12 C          59.9849   90.4728    5.5218 C.3     1  UNL1        0.0867
     13 C          58.9311   89.6913    6.2489 C.3     1  UNL1        0.0266
     14 C          59.3057   88.8448    7.4293 C.3     1  UNL1        0.0691
     15 N          58.7558   87.4554    7.5605 N.3     1  UNL1       -0.2963
     16 C          59.6894   86.2870    7.6743 C.3     1  UNL1        0.0859
     17 H          58.1754   87.2896    6.7383 H       1  UNL1        0.1233
     18 C          61.8133   93.9282   -1.2769 C.ar    1  UNL1        0.0257
     19 C          63.0056   93.6529   -2.1443 C.ar    1  UNL1        0.1398
     20 F          62.8450   92.8694   -3.4133 F       1  UNL1       -0.2042
     21 C          64.3586   94.1611   -1.7428 C.ar    1  UNL1        0.0296
     22 C          64.5192   94.9447   -0.4738 C.ar    1  UNL1        0.0021
     23 C          63.3268   95.2200    0.3936 C.ar    1  UNL1       -0.0019
     24 C          61.9739   94.7118   -0.0079 C.ar    1  UNL1        0.0039
     25 C          58.5187   93.3091   -3.4011 C.ar    1  UNL1       -0.0222
     26 C          57.7544   92.4037   -2.4814 C.ar    1  UNL1       -0.0043
     27 C          58.3430   92.0064   -1.1602 C.ar    1  UNL1       -0.0003
     28 C          59.6959   92.5146   -0.7586 C.ar    1  UNL1        0.0000
     29 C          60.4603   93.4200   -1.6784 C.ar    1  UNL1        0.0016
     30 C          59.8716   93.8173   -2.9996 C.ar    1  UNL1       -0.0042
     31 C          56.4554   93.9526   -4.8429 C.3     1  UNL1        0.0050
     32 C          57.9301   93.7064   -4.7224 C.3     1  UNL1        0.0264
     33 C          60.3873   96.1196   -0.0416 C.3     1  UNL1        0.0330
     34 C          58.9962   96.6774    0.0194 C.3     1  UNL1        0.0241
     35 C          57.9262   96.1232   -0.8738 C.3     1  UNL1        0.0928
     36 N          56.6266   96.8556   -1.0309 N.am    1  UNL1       -0.2707
     37 C          55.3831   96.1049   -1.4051 C.2     1  UNL1        0.4017
     38 O          55.4391   94.6218   -1.6224 O.2     1  UNL1       -0.2264
     39 H          56.5898   97.8290   -0.8883 H       1  UNL1        0.1527
     40 O          54.0835   96.8374   -1.5622 O.3     1  UNL1       -0.4306
     41 C          52.8545   96.0983   -2.0022 C.3     1  UNL1        0.2573
@<TRIPOS>BOND
     1    31    32    1
     2    32    25    1
     3    25    26   ar
     4    26    27   ar
     5    27    28   ar
     6    28    29   ar
     7    29    18    1
     8    18    19   ar
     9    19    20    1
    10    19    21   ar
    11    21    22   ar
    12    22    23   ar
    13    23    24   ar
    14    24     1    1
    15     1     2    1
    16     1    33    1
    17    33    34    1
    18    34    35    1
    19    35    36    1
    20    36    37   am
    21    37    38    2
    22    37    40    1
    23    40    41    1
    24     4     1    1
    25     4     5    1
    26     5     6    1
    27     6     7    1
    28     7     8    1
    29     8     9   am
    30     9    10    2
    31     9    12    1
    32    12    13    1
    33    13    14    1
    34    14    15    1
    35    15    16    1
    36     8    11    1
    37    29    30   ar
    38    30    25   ar
    39    24    18   ar
    40    11     4    1
    41     2     3    1
    42    36    39    1
    43    15    17    1
@<TRIPOS>MOLECULE
*****
 41 43 0 0 0
SMALL
GASTEIGER

@<TRIPOS>ATOM
      1 C          63.0499   88.3522   12.5138 C.3     1  UNL1        0.1086
      2 O          64.4465   88.1406   13.0183 O.3     1  UNL1       -0.3826
      3 H          64.4945   87.2958   13.4926 H       1  UNL1        0.2107
      4 C          63.4650   89.6629   11.9143 C.3     1  UNL1        0.0485
      5 C          62.9415   90.0719   10.5694 C.3     1  UNL1        0.0061
      6 C          63.3567   91.3828    9.9699 C.3     1  UNL1        0.0217
      7 C          64.2954   92.2846   10.7152 C.3     1  UNL1        0.0934
      8 N          64.8190   91.8756   12.0601 N.am    1  UNL1       -0.2794
      9 C          65.7578   92.7774   12.8054 C.2     1  UNL1        0.2257
     10 O          66.2813   92.3684   14.1502 O.2     1  UNL1       -0.2749
     11 C          64.4038   90.5648   12.6596 C.3     1  UNL1        0.0960
     12 C          66.1729   94.0882   12.2059 C.3     1  UNL1        0.0867
     13 C          66.0998   94.2906   10.7214 C.3     1  UNL1        0.0266
     14 C          67.2405   94.9408    9.9960 C.3     1  UNL1        0.0691
     15 N          68.4338   94.1267    9.5921 N.3     1  UNL1       -0.2963
     16 C          68.2918   92.6515    9.3607 C.3     1  UNL1        0.0859
     17 H          69.1323   94.2438   10.3261 H       1  UNL1        0.1233
     18 C          61.1014   87.6749   10.9343 C.ar    1  UNL1        0.0257
     19 C          59.7048   87.8864   10.4297 C.ar    1  UNL1        0.1398
     20 F          59.1529   86.9975    9.3549 F       1  UNL1       -0.2042
     21 C          58.8599   88.9870   10.9999 C.ar    1  UNL1        0.0296
     22 C          59.4117   89.8759   12.0748 C.ar    1  UNL1        0.0021
     23 C          60.8084   89.6643   12.5794 C.ar    1  UNL1       -0.0019
     24 C          61.6532   88.5638   12.0092 C.ar    1  UNL1        0.0039
     25 C          63.0277   84.2226   10.5866 C.ar    1  UNL1       -0.0222
     26 C          63.6358   84.3733    9.2238 C.ar    1  UNL1       -0.0043
     27 C          63.3991   85.6245    8.4311 C.ar    1  UNL1       -0.0003
     28 C          62.5543   86.7250    9.0012 C.ar    1  UNL1        0.0000
     29 C          61.9462   86.5743   10.3641 C.ar    1  UNL1        0.0016
     30 C          62.1829   85.3231   11.1568 C.ar    1  UNL1       -0.0042
     31 C          63.5608   81.6813   10.6738 C.3     1  UNL1        0.0050
     32 C          63.2644   82.9713   11.3793 C.3     1  UNL1        0.0264
     33 C          62.6348   87.0414   13.1133 C.3     1  UNL1        0.0330
     34 C          63.6386   86.1989   13.8429 C.3     1  UNL1        0.0241
     35 C          63.2017   85.3355   14.9890 C.3     1  UNL1        0.0928
     36 N          62.1395   84.2966   14.7829 N.am    1  UNL1       -0.2707
     37 C          62.5112   82.8444   14.7289 C.2     1  UNL1        0.4017
     38 O          63.9451   82.4310   14.8810 O.2     1  UNL1       -0.2264
     39 H          61.1984   84.5678   14.6831 H       1  UNL1        0.1527
     40 O          61.4490   81.8055   14.5229 O.3     1  UNL1       -0.4306
     41 C          61.7609   80.5564   13.7530 C.3     1  UNL1        0.2573
@<TRIPOS>BOND
     1    31    32    1
     2    32    25    1
     3    25    26   ar
     4    26    27   ar
     5    27    28   ar
     6    28    29   ar
     7    29    18    1
     8    18    19   ar
     9    19    20    1
    10    19    21   ar
    11    21    22   ar
    12    22    23   ar
    13    23    24   ar
    14    24     1    1
    15     1     2    1
    16     1    33    1
    17    33    34    1
    18    34    35    1
    19    35    36    1
    20    36    37   am
    21    37    38    2
    22    37    40    1
    23    40    41    1
    24     4     1    1
    25     4     5    1
    26     5     6    1
    27     6     7    1
    28     7     8    1
    29     8     9   am
    30     9    10    2
    31     9    12    1
    32    12    13    1
    33    13    14    1
    34    14    15    1
    35    15    16    1
    36     8    11    1
    37    29    30   ar
    38    30    25   ar
    39    24    18   ar
    40    11     4    1
    41     2     3    1
    42    36    39    1
    43    15    17    1
@<TRIPOS>MOLECULE
*****
 41 43 0 0 0
SMALL
GASTEIGER

@<TRIPOS>ATOM
      1 C          62.4391   86.9973   12.1861 C.3     1  UNL1        0.1086
      2 O          63.4436   86.8912   13.2949 O.3     1  UNL1       -0.3826
      3 H          63.3612   86.0253   13.7241 H       1  UNL1        0.2107
      4 C          62.9294   88.3801   11.8741 C.3     1  UNL1        0.0485
      5 C          62.6980   88.9690   10.5141 C.3     1  UNL1        0.0061
      6 C          63.1884   90.3519   10.2022 C.3     1  UNL1        0.0217
      7 C          63.9102   91.1458   11.2503 C.3     1  UNL1        0.0934
      8 N          64.1417   90.5570   12.6103 N.am    1  UNL1       -0.2794
      9 C          64.8636   91.3510   13.6585 C.2     1  UNL1        0.2257
     10 O          65.0951   90.7621   15.0185 O.2     1  UNL1       -0.2749
     11 C          63.6513   89.1742   12.9223 C.3     1  UNL1        0.0960
     12 C          65.3539   92.7338   13.3465 C.3     1  UNL1        0.0867
     13 C          66.8255   93.0241   13.3404 C.3     1  UNL1        0.0266
     14 C          67.8097   91.9152   13.5682 C.3     1  UNL1        0.0691
     15 N          68.1292   91.4711   14.9649 N.3     1  UNL1       -0.2963
     16 C          68.0802   92.4564   16.0947 C.3     1  UNL1        0.0859
     17 H          69.0765   91.0935   14.9443 H       1  UNL1        0.1233
     18 C          61.3839   86.0526   10.0079 C.ar    1  UNL1        0.0257
     19 C          60.3794   86.1587    8.8990 C.ar    1  UNL1        0.1398
     20 F          60.3288   85.1079    7.8298 F       1  UNL1       -0.2042
     21 C          59.4255   87.3157    8.8593 C.ar    1  UNL1        0.0296
     22 C          59.4761   88.3665    9.9285 C.ar    1  UNL1        0.0021
     23 C          60.4807   88.2604   11.0374 C.ar    1  UNL1       -0.0019
     24 C          61.4345   87.1034   11.0771 C.ar    1  UNL1        0.0039
     25 C          62.9815   82.5396   10.9335 C.ar    1  UNL1       -0.0222
     26 C          64.2456   82.5818   10.1272 C.ar    1  UNL1       -0.0043
     27 C          64.5559   83.7810    9.2812 C.ar    1  UNL1       -0.0003
     28 C          63.6020   84.9379    9.2414 C.ar    1  UNL1        0.0000
     29 C          62.3379   84.8957   10.0477 C.ar    1  UNL1        0.0016
     30 C          62.0276   83.6965   10.8937 C.ar    1  UNL1       -0.0042
     31 C          63.4594   81.0797   13.0288 C.3     1  UNL1        0.0050
     32 C          62.6712   81.3404   11.7795 C.3     1  UNL1        0.0264
     33 C          61.9487   85.6145   12.4980 C.3     1  UNL1        0.0330
     34 C          62.7611   84.7114   13.3780 C.3     1  UNL1        0.0241
     35 C          62.1915   84.2166   14.6744 C.3     1  UNL1        0.0928
     36 N          61.9914   85.1674   15.8172 N.am    1  UNL1       -0.2707
     37 C          63.1705   85.8662   16.4266 C.2     1  UNL1        0.4017
     38 O          64.5497   85.6143   15.8933 O.2     1  UNL1       -0.2264
     39 H          61.0862   85.3328   16.1672 H       1  UNL1        0.1527
     40 O          62.9704   86.8170   17.5694 O.3     1  UNL1       -0.4306
     41 C          63.0209   88.2972   17.3312 C.3     1  UNL1        0.2573
@<TRIPOS>BOND
     1    31    32    1
     2    32    25    1
     3    25    26   ar
     4    26    27   ar
     5    27    28   ar
     6    28    29   ar
     7    29    18    1
     8    18    19   ar
     9    19    20    1
    10    19    21   ar
    11    21    22   ar
    12    22    23   ar
    13    23    24   ar
    14    24     1    1
    15     1     2    1
    16     1    33    1
    17    33    34    1
    18    34    35    1
    19    35    36    1
    20    36    37   am
    21    37    38    2
    22    37    40    1
    23    40    41    1
    24     4     1    1
    25     4     5    1
    26     5     6    1
    27     6     7    1
    28     7     8    1
    29     8     9   am
    30     9    10    2
    31     9    12    1
    32    12    13    1
    33    13    14    1
    34    14    15    1
    35    15    16    1
    36     8    11    1
    37    29    30   ar
    38    30    25   ar
    39    24    18   ar
    40    11     4    1
    41     2     3    1
    42    36    39    1
    43    15    17    1
@<TRIPOS>MOLECULE
*****
 41 43 0 0 0
SMALL
GASTEIGER

@<TRIPOS>ATOM
      1 C          62.3357   87.8794   11.8300 C.3     1  UNL1        0.1086
      2 O          63.3809   87.0821   12.5524 O.3     1  UNL1       -0.3826
      3 H          63.1655   86.1382   12.4936 H       1  UNL1        0.2107
      4 C          63.0586   89.1458   12.1818 C.3     1  UNL1        0.0485
      5 C          63.5097   90.0781   11.0968 C.3     1  UNL1        0.0061
      6 C          64.2326   91.3445   11.4487 C.3     1  UNL1        0.0217
      7 C          64.5044   91.6785   12.8855 C.3     1  UNL1        0.0934
      8 N          64.0534   90.7461   13.9705 N.am    1  UNL1       -0.2794
      9 C          64.3253   91.0801   15.4074 C.2     1  UNL1        0.2257
     10 O          63.8742   90.1478   16.4924 O.2     1  UNL1       -0.2749
     11 C          63.3305   89.4798   13.6187 C.3     1  UNL1        0.0960
     12 C          65.0481   92.3465   15.7592 C.3     1  UNL1        0.0867
     13 C          66.5293   92.3238   15.9947 C.3     1  UNL1        0.0266
     14 C          67.4535   91.8479   14.9132 C.3     1  UNL1        0.0691
     15 N          68.8233   92.4446   14.7809 N.3     1  UNL1       -0.2963
     16 C          69.2388   93.5743   15.6759 C.3     1  UNL1        0.0859
     17 H          68.9058   92.7829   13.8222 H       1  UNL1        0.1233
     18 C          60.9535   88.3544    9.6820 C.ar    1  UNL1        0.0257
     19 C          59.9083   89.1517    8.9596 C.ar    1  UNL1        0.1398
     20 F          59.5713   88.8293    7.5340 F       1  UNL1       -0.2042
     21 C          59.2002   90.2716    9.6629 C.ar    1  UNL1        0.0296
     22 C          59.5372   90.5941   11.0885 C.ar    1  UNL1        0.0021
     23 C          60.5824   89.7967   11.8109 C.ar    1  UNL1       -0.0019
     24 C          61.2905   88.6769   11.1076 C.ar    1  UNL1        0.0039
     25 C          61.6124   85.2175    7.3419 C.ar    1  UNL1       -0.0222
     26 C          63.0778   84.9948    7.5723 C.ar    1  UNL1       -0.0043
     27 C          63.8350   85.8920    8.5060 C.ar    1  UNL1       -0.0003
     28 C          63.1270   87.0118    9.2092 C.ar    1  UNL1        0.0000
     29 C          61.6616   87.2345    8.9788 C.ar    1  UNL1        0.0016
     30 C          60.9044   86.3374    8.0451 C.ar    1  UNL1       -0.0042
     31 C          61.4792   83.8849    5.1156 C.3     1  UNL1        0.0050
     32 C          60.8552   84.3204    6.4082 C.3     1  UNL1        0.0264
     33 C          61.6128   86.6131   11.4782 C.3     1  UNL1        0.0330
     34 C          61.9872   85.3247   12.1489 C.3     1  UNL1        0.0241
     35 C          62.5594   84.1975   11.3416 C.3     1  UNL1        0.0928
     36 N          62.5935   82.8097   11.9099 N.am    1  UNL1       -0.2707
     37 C          63.6248   82.4446   12.9360 C.2     1  UNL1        0.4017
     38 O          64.6221   83.4672   13.3939 O.2     1  UNL1       -0.2264
     39 H          61.9389   82.1385   11.6094 H       1  UNL1        0.1527
     40 O          63.6589   81.0568   13.5043 O.3     1  UNL1       -0.4306
     41 C          62.4280   80.2002   13.4660 C.3     1  UNL1        0.2573
@<TRIPOS>BOND
     1    31    32    1
     2    32    25    1
     3    25    26   ar
     4    26    27   ar
     5    27    28   ar
     6    28    29   ar
     7    29    18    1
     8    18    19   ar
     9    19    20    1
    10    19    21   ar
    11    21    22   ar
    12    22    23   ar
    13    23    24   ar
    14    24     1    1
    15     1     2    1
    16     1    33    1
    17    33    34    1
    18    34    35    1
    19    35    36    1
    20    36    37   am
    21    37    38    2
    22    37    40    1
    23    40    41    1
    24     4     1    1
    25     4     5    1
    26     5     6    1
    27     6     7    1
    28     7     8    1
    29     8     9   am
    30     9    10    2
    31     9    12    1
    32    12    13    1
    33    13    14    1
    34    14    15    1
    35    15    16    1
    36     8    11    1
    37    29    30   ar
    38    30    25   ar
    39    24    18   ar
    40    11     4    1
    41     2     3    1
    42    36    39    1
    43    15    17    1
@<TRIPOS>MOLECULE
*****
 41 43 0 0 0
SMALL
GASTEIGER

@<TRIPOS>ATOM
      1 C          62.9372   87.7879   12.5325 C.3     1  UNL1        0.1086
      2 O          64.2772   87.5024   13.1430 O.3     1  UNL1       -0.3826
      3 H          64.2832   86.6016   13.5029 H       1  UNL1        0.2107
      4 C          63.4011   89.1643   12.1580 C.3     1  UNL1        0.0485
      5 C          63.0089   89.7541   10.8358 C.3     1  UNL1        0.0061
      6 C          63.4729   91.1306   10.4614 C.3     1  UNL1        0.0217
      7 C          64.3289   91.9172   11.4092 C.3     1  UNL1        0.0934
      8 N          64.7210   91.3274   12.7314 N.am    1  UNL1       -0.2794
      9 C          65.5771   92.1141   13.6793 C.2     1  UNL1        0.2257
     10 O          65.9693   91.5243   15.0015 O.2     1  UNL1       -0.2749
     11 C          64.2572   89.9510   13.1059 C.3     1  UNL1        0.0960
     12 C          66.0410   93.4905   13.3048 C.3     1  UNL1        0.0867
     13 C          66.7945   93.7059   12.0259 C.3     1  UNL1        0.0266
     14 C          66.4790   94.8893   11.1596 C.3     1  UNL1        0.0691
     15 N          67.3829   95.2442   10.0165 N.3     1  UNL1       -0.2963
     16 C          67.9381   94.1641    9.1361 C.3     1  UNL1        0.0859
     17 H          68.1811   95.7387   10.4148 H       1  UNL1        0.1233
     18 C          61.1307   87.2849   10.7342 C.ar    1  UNL1        0.0257
     19 C          59.7907   87.5704   10.1236 C.ar    1  UNL1        0.1398
     20 F          59.3243   86.7818    8.9359 F       1  UNL1       -0.2042
     21 C          58.9171   88.6446   10.7007 C.ar    1  UNL1        0.0296
     22 C          59.3835   89.4332   11.8884 C.ar    1  UNL1        0.0021
     23 C          60.7236   89.1476   12.4990 C.ar    1  UNL1       -0.0019
     24 C          61.5971   88.0735   11.9219 C.ar    1  UNL1        0.0039
     25 C          63.1451   83.8856   10.3635 C.ar    1  UNL1       -0.0222
     26 C          63.7516   84.0624    9.0031 C.ar    1  UNL1       -0.0043
     27 C          63.4844   85.3134    8.2196 C.ar    1  UNL1       -0.0003
     28 C          62.6109   86.3875    8.7967 C.ar    1  UNL1        0.0000
     29 C          62.0044   86.2107   10.1571 C.ar    1  UNL1        0.0016
     30 C          62.2715   84.9598   10.9405 C.ar    1  UNL1       -0.0042
     31 C          62.4469   82.1929   12.2066 C.3     1  UNL1        0.0050
     32 C          63.4122   82.6347   11.1469 C.3     1  UNL1        0.0264
     33 C          62.4733   86.4115   12.9069 C.3     1  UNL1        0.0330
     34 C          63.4224   85.4526   13.5624 C.3     1  UNL1        0.0241
     35 C          63.5668   85.4430   15.0554 C.3     1  UNL1        0.0928
     36 N          63.8121   86.7256   15.7935 N.am    1  UNL1       -0.2707
     37 C          62.8666   87.1624   16.8729 C.2     1  UNL1        0.4017
     38 O          61.6757   86.3167   17.2142 O.2     1  UNL1       -0.2264
     39 H          64.5938   87.2807   15.5695 H       1  UNL1        0.1527
     40 O          63.1119   88.4450   17.6109 O.3     1  UNL1       -0.4306
     41 C          63.2362   89.7340   16.8538 C.3     1  UNL1        0.2573
@<TRIPOS>BOND
     1    31    32    1
     2    32    25    1
     3    25    26   ar
     4    26    27   ar
     5    27    28   ar
     6    28    29   ar
     7    29    18    1
     8    18    19   ar
     9    19    20    1
    10    19    21   ar
    11    21    22   ar
    12    22    23   ar
    13    23    24   ar
    14    24     1    1
    15     1     2    1
    16     1    33    1
    17    33    34    1
    18    34    35    1
    19    35    36    1
    20    36    37   am
    21    37    38    2
    22    37    40    1
    23    40    41    1
    24     4     1    1
    25     4     5    1
    26     5     6    1
    27     6     7    1
    28     7     8    1
    29     8     9   am
    30     9    10    2
    31     9    12    1
    32    12    13    1
    33    13    14    1
    34    14    15    1
    35    15    16    1
    36     8    11    1
    37    29    30   ar
    38    30    25   ar
    39    24    18   ar
    40    11     4    1
    41     2     3    1
    42    36    39    1
    43    15    17    1
@<TRIPOS>MOLECULE
*****
 41 43 0 0 0
SMALL
GASTEIGER

@<TRIPOS>ATOM
      1 C          63.2867   89.2804   12.7816 C.3     1  UNL1        0.1086
      2 O          63.2006   88.7090   11.3975 O.3     1  UNL1       -0.3826
      3 H          62.9325   89.4043   10.7766 H       1  UNL1        0.2107
      4 C          63.6961   87.9378   13.3105 C.3     1  UNL1        0.0485
      5 C          64.5605   87.8450   14.5329 C.3     1  UNL1        0.0061
      6 C          64.9699   86.5023   15.0617 C.3     1  UNL1        0.0217
      7 C          64.5149   85.2525   14.3683 C.3     1  UNL1        0.0934
      8 N          63.6505   85.3454   13.1459 N.am    1  UNL1       -0.2794
      9 C          63.1954   84.0955   12.4524 C.2     1  UNL1        0.2257
     10 O          62.3310   84.1883   11.2300 O.2     1  UNL1       -0.2749
     11 C          63.2411   86.6880   12.6170 C.3     1  UNL1        0.0960
     12 C          63.6048   82.7529   12.9813 C.3     1  UNL1        0.0867
     13 C          63.0819   81.5025   12.3387 C.3     1  UNL1        0.0266
     14 C          62.2601   80.5355   13.1385 C.3     1  UNL1        0.0691
     15 N          61.2406   81.0450   14.1137 N.3     1  UNL1       -0.2963
     16 C          59.8942   80.3899   14.2020 C.3     1  UNL1        0.0859
     17 H          61.0768   82.0250   13.8833 H       1  UNL1        0.1233
     18 C          64.3486   90.9514   14.4640 C.ar    1  UNL1        0.0257
     19 C          64.4346   91.5229   15.8482 C.ar    1  UNL1        0.1398
     20 F          65.4105   92.6223   16.1463 F       1  UNL1       -0.2042
     21 C          63.5449   90.9949   16.9343 C.ar    1  UNL1        0.0296
     22 C          62.5690   89.8954   16.6362 C.ar    1  UNL1        0.0021
     23 C          62.4830   89.3239   15.2519 C.ar    1  UNL1       -0.0019
     24 C          63.3727   89.8519   14.1659 C.ar    1  UNL1        0.0039
     25 C          67.6173   91.8706   12.4096 C.ar    1  UNL1       -0.0222
     26 C          67.0179   92.5353   11.2059 C.ar    1  UNL1       -0.0043
     27 C          65.5288   92.6720   11.0882 C.ar    1  UNL1       -0.0003
     28 C          64.6390   92.1441   12.1742 C.ar    1  UNL1        0.0000
     29 C          65.2384   91.4794   13.3779 C.ar    1  UNL1        0.0016
     30 C          66.7275   91.3427   13.4956 C.ar    1  UNL1       -0.0042
     31 C          69.7849   92.0204   13.8339 C.3     1  UNL1        0.0050
     32 C          69.1064   91.7339   12.5273 C.3     1  UNL1        0.0264
     33 C          62.8773   90.6230   12.2527 C.3     1  UNL1        0.0330
     34 C          61.7515   90.7294   11.2671 C.3     1  UNL1        0.0241
     35 C          60.6174   89.7490   11.3152 C.3     1  UNL1        0.0928
     36 N          59.8449   89.4341   10.0686 N.am    1  UNL1       -0.2707
     37 C          60.3726   88.4228    9.0946 C.2     1  UNL1        0.4017
     38 O          61.6729   87.7264    9.3671 O.2     1  UNL1       -0.2264
     39 H          58.9914   89.8911    9.8898 H       1  UNL1        0.1527
     40 O          59.6000   88.1079    7.8480 O.3     1  UNL1       -0.4306
     41 C          58.9942   86.7479    7.6645 C.3     1  UNL1        0.2573
@<TRIPOS>BOND
     1    31    32    1
     2    32    25    1
     3    25    26   ar
     4    26    27   ar
     5    27    28   ar
     6    28    29   ar
     7    29    18    1
     8    18    19   ar
     9    19    20    1
    10    19    21   ar
    11    21    22   ar
    12    22    23   ar
    13    23    24   ar
    14    24     1    1
    15     1     2    1
    16     1    33    1
    17    33    34    1
    18    34    35    1
    19    35    36    1
    20    36    37   am
    21    37    38    2
    22    37    40    1
    23    40    41    1
    24     4     1    1
    25     4     5    1
    26     5     6    1
    27     6     7    1
    28     7     8    1
    29     8     9   am
    30     9    10    2
    31     9    12    1
    32    12    13    1
    33    13    14    1
    34    14    15    1
    35    15    16    1
    36     8    11    1
    37    29    30   ar
    38    30    25   ar
    39    24    18   ar
    40    11     4    1
    41     2     3    1
    42    36    39    1
    43    15    17    1
@<TRIPOS>MOLECULE
*****
 41 43 0 0 0
SMALL
GASTEIGER

@<TRIPOS>ATOM
      1 C          61.2182   88.7335   11.7534 C.3     1  UNL1        0.1086
      2 O          60.0902   87.8061   12.0963 O.3     1  UNL1       -0.3826
      3 H          59.3945   88.3000   12.5578 H       1  UNL1        0.2107
      4 C          61.9604   87.5956   11.1177 C.3     1  UNL1        0.0485
      5 C          62.4620   87.7208    9.7096 C.3     1  UNL1        0.0061
      6 C          63.2043   86.5828    9.0738 C.3     1  UNL1        0.0217
      7 C          63.4450   85.3197    9.8462 C.3     1  UNL1        0.0934
      8 N          62.9434   85.1945   11.2543 N.am    1  UNL1       -0.2794
      9 C          63.1842   83.9313   12.0267 C.2     1  UNL1        0.2257
     10 O          62.6827   83.8061   13.4348 O.2     1  UNL1       -0.2749
     11 C          62.2012   86.3324   11.8900 C.3     1  UNL1        0.0960
     12 C          63.9265   82.7934   11.3910 C.3     1  UNL1        0.0867
     13 C          63.1923   81.5463   10.9965 C.3     1  UNL1        0.0266
     14 C          62.8701   80.5073   12.0293 C.3     1  UNL1        0.0691
     15 N          62.6057   80.9166   13.4479 N.3     1  UNL1       -0.2963
     16 C          61.2088   80.8744   13.9927 C.3     1  UNL1        0.0859
     17 H          62.9294   81.8793   13.5418 H       1  UNL1        0.1233
     18 C          63.4378   89.9148   12.4075 C.ar    1  UNL1        0.0257
     19 C          64.5659   90.8421   12.0647 C.ar    1  UNL1        0.1398
     20 F          65.6574   91.0960   13.0617 F       1  UNL1       -0.2042
     21 C          64.6024   91.5155   10.7248 C.ar    1  UNL1        0.0296
     22 C          63.5108   91.2616    9.7278 C.ar    1  UNL1        0.0021
     23 C          62.3827   90.3342   10.0707 C.ar    1  UNL1       -0.0019
     24 C          62.3462   89.6608   11.4105 C.ar    1  UNL1        0.0039
     25 C          63.9071   87.1780   15.2430 C.ar    1  UNL1       -0.0222
     26 C          63.3283   87.8944   16.4270 C.ar    1  UNL1       -0.0043
     27 C          62.7861   89.2843   16.2711 C.ar    1  UNL1       -0.0003
     28 C          62.8226   89.9577   14.9313 C.ar    1  UNL1        0.0000
     29 C          63.4013   89.2413   13.7474 C.ar    1  UNL1        0.0016
     30 C          63.9435   87.8515   13.9032 C.ar    1  UNL1       -0.0042
     31 C          65.6015   85.3334   14.5530 C.3     1  UNL1        0.0050
     32 C          64.4493   85.7882   15.3988 C.3     1  UNL1        0.0264
     33 C          60.4759   89.8714   12.3891 C.3     1  UNL1        0.0330
     34 C          59.4127   90.5968   11.6189 C.3     1  UNL1        0.0241
     35 C          59.3512   90.4718   10.1254 C.3     1  UNL1        0.0928
     36 N          59.3449   89.1149    9.4860 N.am    1  UNL1       -0.2707
     37 C          59.5415   88.9829    8.0048 C.2     1  UNL1        0.4017
     38 O          59.7443   90.2078    7.1630 O.2     1  UNL1       -0.2264
     39 H          59.2118   88.3110   10.0385 H       1  UNL1        0.1527
     40 O          59.5352   87.6260    7.3654 O.3     1  UNL1       -0.4306
     41 C          59.5474   86.3938    8.2207 C.3     1  UNL1        0.2573
@<TRIPOS>BOND
     1    31    32    1
     2    32    25    1
     3    25    26   ar
     4    26    27   ar
     5    27    28   ar
     6    28    29   ar
     7    29    18    1
     8    18    19   ar
     9    19    20    1
    10    19    21   ar
    11    21    22   ar
    12    22    23   ar
    13    23    24   ar
    14    24     1    1
    15     1     2    1
    16     1    33    1
    17    33    34    1
    18    34    35    1
    19    35    36    1
    20    36    37   am
    21    37    38    2
    22    37    40    1
    23    40    41    1
    24     4     1    1
    25     4     5    1
    26     5     6    1
    27     6     7    1
    28     7     8    1
    29     8     9   am
    30     9    10    2
    31     9    12    1
    32    12    13    1
    33    13    14    1
    34    14    15    1
    35    15    16    1
    36     8    11    1
    37    29    30   ar
    38    30    25   ar
    39    24    18   ar
    40    11     4    1
    41     2     3    1
    42    36    39    1
    43    15    17    1
