@<TRIPOS>MOLECULE
*****
 22 24 0 0 0
SMALL
GASTEIGER

@<TRIPOS>ATOM
      1 N          63.8947   87.5104   14.3025 N.2     1  UNL1       -0.1773
      2 C          64.6387   86.2284   14.5324 C.2     1  UNL1        0.1178
      3 C          63.9560   84.9130   14.3000 C.ar    1  UNL1        0.0269
      4 C          63.0145   84.3642   15.3306 C.ar    1  UNL1        0.0037
      5 C          62.3320   83.0489   15.0982 C.ar    1  UNL1        0.0290
      6 C          62.5909   82.2825   13.8350 C.ar    1  UNL1        0.1952
      7 N          62.0673   80.9697   13.3323 N.ar    1  UNL1       -0.0020
      8 O          62.6852   80.7073   11.9909 O.2     1  UNL1       -0.0982
      9 N          63.5907   81.8579   11.6646 N.ar    1  UNL1        0.0591
     10 O          64.4105   82.0085   10.4176 O.co2   1  UNL1       -0.5772
     11 C          63.5324   82.8313   12.8043 C.ar    1  UNL1        0.3088
     12 C          64.2149   84.1466   13.0368 C.ar    1  UNL1        0.0785
     13 O          63.5333   89.7545   12.3446 O.2     1  UNL1       -0.2684
     14 C          64.3965   89.9478   13.5560 C.2     1  UNL1        0.2646
     15 N          64.5772   88.8257   14.5349 N.am    1  UNL1       -0.2023
     16 H          65.1438   88.9525   15.3300 H       1  UNL1        0.1776
     17 C          65.0791   91.2631   13.7885 C.ar    1  UNL1        0.0581
     18 C          65.3272   92.1930   12.6380 C.ar    1  UNL1        0.0252
     19 C          66.0097   93.5083   12.8705 C.ar    1  UNL1        0.0990
     20 N          66.4443   93.8937   14.2535 N.ar    1  UNL1       -0.2423
     21 C          66.1962   92.9637   15.4040 C.ar    1  UNL1        0.0990
     22 C          65.5136   91.6485   15.1715 C.ar    1  UNL1        0.0252
@<TRIPOS>UNITY_ATOM_ATTR
9 1
charge 1
10 1
charge -1
@<TRIPOS>BOND
     1    13    14    2
     2    14    15   am
     3    15     1    1
     4     1     2    2
     5     2     3    1
     6     3     4   ar
     7     4     5   ar
     8     5     6   ar
     9     6     7   ar
    10     7     8   ar
    11     8     9   ar
    12     9    10    1
    13     9    11   ar
    14    11    12   ar
    15    14    17    1
    16    17    18   ar
    17    18    19   ar
    18    19    20   ar
    19    20    21   ar
    20    21    22   ar
    21    12     3   ar
    22    22    17   ar
    23    11     6   ar
    24    15    16    1
@<TRIPOS>MOLECULE
*****
 22 24 0 0 0
SMALL
GASTEIGER

@<TRIPOS>ATOM
      1 N          64.4114   91.7346   13.2225 N.2     1  UNL1       -0.1773
      2 C          64.8168   90.3057   13.4323 C.2     1  UNL1        0.1178
      3 C          64.2547   89.5282   14.5854 C.ar    1  UNL1        0.0269
      4 C          63.6068   90.2482   15.7307 C.ar    1  UNL1        0.0037
      5 C          63.0447   89.4706   16.8837 C.ar    1  UNL1        0.0290
      6 C          63.1304   87.9731   16.8914 C.ar    1  UNL1        0.1952
      7 N          62.6686   86.9464   17.8827 N.ar    1  UNL1       -0.0020
      8 O          63.0312   85.5918   17.3500 O.2     1  UNL1       -0.0982
      9 N          63.7170   85.7814   16.0295 N.ar    1  UNL1        0.0591
     10 O          64.2482   84.6908   15.1473 O.co2   1  UNL1       -0.5772
     11 C          63.7783   87.2531   15.7461 C.ar    1  UNL1        0.3088
     12 C          64.3405   88.0307   14.5931 C.ar    1  UNL1        0.0785
     13 O          66.1874   94.0984   13.7309 O.2     1  UNL1       -0.2684
     14 C          65.8615   93.6940   12.3237 C.2     1  UNL1        0.2646
     15 N          64.9735   92.5121   12.0695 N.am    1  UNL1       -0.2023
     16 H          64.7596   92.2467   11.1459 H       1  UNL1        0.1776
     17 C          66.4236   94.4715   11.1707 C.ar    1  UNL1        0.0581
     18 C          66.2869   95.9648   11.1353 C.ar    1  UNL1        0.0252
     19 C          66.8490   96.7423    9.9822 C.ar    1  UNL1        0.0990
     20 N          67.5478   96.0265    8.8646 N.ar    1  UNL1       -0.2423
     21 C          67.6845   94.5332    8.8999 C.ar    1  UNL1        0.0990
     22 C          67.1225   93.7557   10.0530 C.ar    1  UNL1        0.0252
@<TRIPOS>UNITY_ATOM_ATTR
9 1
charge 1
10 1
charge -1
@<TRIPOS>BOND
     1    13    14    2
     2    14    15   am
     3    15     1    1
     4     1     2    2
     5     2     3    1
     6     3     4   ar
     7     4     5   ar
     8     5     6   ar
     9     6     7   ar
    10     7     8   ar
    11     8     9   ar
    12     9    10    1
    13     9    11   ar
    14    11    12   ar
    15    14    17    1
    16    17    18   ar
    17    18    19   ar
    18    19    20   ar
    19    20    21   ar
    20    21    22   ar
    21    12     3   ar
    22    22    17   ar
    23    11     6   ar
    24    15    16    1
@<TRIPOS>MOLECULE
*****
 22 24 0 0 0
SMALL
GASTEIGER

@<TRIPOS>ATOM
      1 N          64.0866   87.5137   13.9234 N.2     1  UNL1       -0.1773
      2 C          63.6681   88.7723   13.2228 C.2     1  UNL1        0.1178
      3 C          64.3633   90.0664   13.5267 C.ar    1  UNL1        0.0269
      4 C          64.7812   90.3812   14.9324 C.ar    1  UNL1        0.0037
      5 C          65.4763   91.6752   15.2362 C.ar    1  UNL1        0.0290
      6 C          65.7535   92.6544   14.1343 C.ar    1  UNL1        0.1952
      7 N          66.4166   93.9999   14.1305 N.ar    1  UNL1       -0.0020
      8 O          66.4085   94.5167   12.7223 O.2     1  UNL1       -0.0982
      9 N          65.7404   93.4905   11.8559 N.ar    1  UNL1        0.0591
     10 O          65.5164   93.5966   10.3765 O.co2   1  UNL1       -0.5772
     11 C          65.3356   92.3396   12.7285 C.ar    1  UNL1        0.3088
     12 C          64.6405   91.0456   12.4247 C.ar    1  UNL1        0.0785
     13 O          65.4552   84.9058   14.4941 O.2     1  UNL1       -0.2684
     14 C          64.0758   84.9157   13.9049 C.2     1  UNL1        0.2646
     15 N          63.3915   86.2197   13.6196 N.am    1  UNL1       -0.2023
     16 H          62.4861   86.2262   13.2329 H       1  UNL1        0.1776
     17 C          63.3806   83.6217   13.6011 C.ar    1  UNL1        0.0581
     18 C          63.5764   82.9598   12.2694 C.ar    1  UNL1        0.0252
     19 C          62.8812   81.6658   11.9656 C.ar    1  UNL1        0.0990
     20 N          61.9903   81.0337   12.9935 N.ar    1  UNL1       -0.2423
     21 C          61.7945   81.6956   14.3253 C.ar    1  UNL1        0.0990
     22 C          62.4897   82.9896   14.6290 C.ar    1  UNL1        0.0252
@<TRIPOS>UNITY_ATOM_ATTR
9 1
charge 1
10 1
charge -1
@<TRIPOS>BOND
     1    13    14    2
     2    14    15   am
     3    15     1    1
     4     1     2    2
     5     2     3    1
     6     3     4   ar
     7     4     5   ar
     8     5     6   ar
     9     6     7   ar
    10     7     8   ar
    11     8     9   ar
    12     9    10    1
    13     9    11   ar
    14    11    12   ar
    15    14    17    1
    16    17    18   ar
    17    18    19   ar
    18    19    20   ar
    19    20    21   ar
    20    21    22   ar
    21    12     3   ar
    22    22    17   ar
    23    11     6   ar
    24    15    16    1
@<TRIPOS>MOLECULE
*****
 22 24 0 0 0
SMALL
GASTEIGER

@<TRIPOS>ATOM
      1 N          63.4553   88.8863   12.5343 N.2     1  UNL1       -0.1773
      2 C          63.0966   90.1758   13.2114 C.2     1  UNL1        0.1178
      3 C          64.0873   90.8500   14.1137 C.ar    1  UNL1        0.0269
      4 C          63.6870   91.2463   15.5039 C.ar    1  UNL1        0.0037
      5 C          64.6777   91.9204   16.4061 C.ar    1  UNL1        0.0290
      6 C          66.0686   92.1983   15.9182 C.ar    1  UNL1        0.1952
      7 N          67.2527   92.8436   16.5753 N.ar    1  UNL1       -0.0020
      8 O          68.3847   92.8461   15.5912 O.2     1  UNL1       -0.0982
      9 N          67.9003   92.2024   14.3259 N.ar    1  UNL1        0.0591
     10 O          68.7058   91.9953   13.0776 O.co2   1  UNL1       -0.5772
     11 C          66.4689   91.8020   14.5279 C.ar    1  UNL1        0.3088
     12 C          65.4782   91.1279   13.6257 C.ar    1  UNL1        0.0785
     13 O          62.8390   90.0575    9.8420 O.2     1  UNL1       -0.2684
     14 C          62.1566   88.7977   10.2858 C.2     1  UNL1        0.2646
     15 N          62.4647   88.2121   11.6320 N.am    1  UNL1       -0.2023
     16 H          62.0168   87.3852   11.9233 H       1  UNL1        0.1776
     17 C          61.1659   88.1234    9.3836 C.ar    1  UNL1        0.0581
     18 C          60.1072   88.9324    8.6946 C.ar    1  UNL1        0.0252
     19 C          59.1167   88.2581    7.7924 C.ar    1  UNL1        0.0990
     20 N          59.1848   86.7749    7.5791 N.ar    1  UNL1       -0.2423
     21 C          60.2435   85.9660    8.2681 C.ar    1  UNL1        0.0990
     22 C          61.2341   86.6402    9.1703 C.ar    1  UNL1        0.0252
@<TRIPOS>UNITY_ATOM_ATTR
9 1
charge 1
10 1
charge -1
@<TRIPOS>BOND
     1    13    14    2
     2    14    15   am
     3    15     1    1
     4     1     2    2
     5     2     3    1
     6     3     4   ar
     7     4     5   ar
     8     5     6   ar
     9     6     7   ar
    10     7     8   ar
    11     8     9   ar
    12     9    10    1
    13     9    11   ar
    14    11    12   ar
    15    14    17    1
    16    17    18   ar
    17    18    19   ar
    18    19    20   ar
    19    20    21   ar
    20    21    22   ar
    21    12     3   ar
    22    22    17   ar
    23    11     6   ar
    24    15    16    1
@<TRIPOS>MOLECULE
*****
 22 24 0 0 0
SMALL
GASTEIGER

@<TRIPOS>ATOM
      1 N          63.7341   87.0722   13.1746 N.2     1  UNL1       -0.1773
      2 C          64.0746   88.0617   14.2493 C.2     1  UNL1        0.1178
      3 C          64.4194   89.4755   13.8852 C.ar    1  UNL1        0.0269
      4 C          63.8087   90.1071   12.6695 C.ar    1  UNL1        0.0037
      5 C          64.1535   91.5207   12.3054 C.ar    1  UNL1        0.0290
      6 C          65.1090   92.3028   13.1572 C.ar    1  UNL1        0.1952
      7 N          65.6342   93.7038   13.0492 N.ar    1  UNL1       -0.0020
      8 O          66.5695   93.9379   14.1983 O.2     1  UNL1       -0.0982
      9 N          66.6223   92.6818   15.0164 N.ar    1  UNL1        0.0591
     10 O          67.4351   92.4728   16.2597 O.co2   1  UNL1       -0.5772
     11 C          65.7197   91.6712   14.3729 C.ar    1  UNL1        0.3088
     12 C          65.3749   90.2576   14.7370 C.ar    1  UNL1        0.0785
     13 O          63.0691   85.0890   11.0241 O.2     1  UNL1       -0.2684
     14 C          63.0569   84.6669   12.4634 C.2     1  UNL1        0.2646
     15 N          63.3894   85.6585   13.5387 N.am    1  UNL1       -0.2023
     16 H          63.3813   85.3815   14.4833 H       1  UNL1        0.1776
     17 C          62.7121   83.2532   12.8275 C.ar    1  UNL1        0.0581
     18 C          62.0257   82.9599   14.1285 C.ar    1  UNL1        0.0252
     19 C          61.6809   81.5462   14.4926 C.ar    1  UNL1        0.0990
     20 N          62.0226   80.4258   13.5556 N.ar    1  UNL1       -0.2423
     21 C          62.7090   80.7191   12.2545 C.ar    1  UNL1        0.0990
     22 C          63.0538   82.1328   11.8905 C.ar    1  UNL1        0.0252
@<TRIPOS>UNITY_ATOM_ATTR
9 1
charge 1
10 1
charge -1
@<TRIPOS>BOND
     1    13    14    2
     2    14    15   am
     3    15     1    1
     4     1     2    2
     5     2     3    1
     6     3     4   ar
     7     4     5   ar
     8     5     6   ar
     9     6     7   ar
    10     7     8   ar
    11     8     9   ar
    12     9    10    1
    13     9    11   ar
    14    11    12   ar
    15    14    17    1
    16    17    18   ar
    17    18    19   ar
    18    19    20   ar
    19    20    21   ar
    20    21    22   ar
    21    12     3   ar
    22    22    17   ar
    23    11     6   ar
    24    15    16    1
@<TRIPOS>MOLECULE
*****
 22 24 0 0 0
SMALL
GASTEIGER

@<TRIPOS>ATOM
      1 N          64.4422   86.1315   14.7771 N.2     1  UNL1       -0.1773
      2 C          63.9267   87.3836   14.1317 C.2     1  UNL1        0.1178
      3 C          64.0590   88.7005   14.8376 C.ar    1  UNL1        0.0269
      4 C          63.2693   88.9654   16.0851 C.ar    1  UNL1        0.0037
      5 C          63.4017   90.2823   16.7910 C.ar    1  UNL1        0.0290
      6 C          64.3237   91.3342   16.2494 C.ar    1  UNL1        0.1952
      7 N          64.6586   92.7169   16.7252 N.ar    1  UNL1       -0.0020
      8 O          65.6552   93.3064   15.7718 O.2     1  UNL1       -0.0982
      9 N          65.9363   92.2882   14.7068 N.ar    1  UNL1        0.0591
     10 O          66.8755   92.4588   13.5497 O.co2   1  UNL1       -0.5772
     11 C          65.1134   91.0693   15.0020 C.ar    1  UNL1        0.3088
     12 C          64.9811   89.7525   14.2961 C.ar    1  UNL1        0.0785
     13 O          61.8686   84.5978   14.9331 O.2     1  UNL1       -0.2684
     14 C          63.0232   84.0478   14.1492 C.2     1  UNL1        0.2646
     15 N          64.3100   84.8147   14.0712 N.am    1  UNL1       -0.2023
     16 H          65.0677   84.4536   13.5568 H       1  UNL1        0.1776
     17 C          62.8909   82.7309   13.4433 C.ar    1  UNL1        0.0581
     18 C          63.2498   82.6190   11.9912 C.ar    1  UNL1        0.0252
     19 C          63.1175   81.3021   11.2853 C.ar    1  UNL1        0.0990
     20 N          62.6265   80.0971   12.0316 N.ar    1  UNL1       -0.2423
     21 C          62.2676   80.2090   13.4837 C.ar    1  UNL1        0.0990
     22 C          62.3999   81.5259   14.1895 C.ar    1  UNL1        0.0252
@<TRIPOS>UNITY_ATOM_ATTR
9 1
charge 1
10 1
charge -1
@<TRIPOS>BOND
     1    13    14    2
     2    14    15   am
     3    15     1    1
     4     1     2    2
     5     2     3    1
     6     3     4   ar
     7     4     5   ar
     8     5     6   ar
     9     6     7   ar
    10     7     8   ar
    11     8     9   ar
    12     9    10    1
    13     9    11   ar
    14    11    12   ar
    15    14    17    1
    16    17    18   ar
    17    18    19   ar
    18    19    20   ar
    19    20    21   ar
    20    21    22   ar
    21    12     3   ar
    22    22    17   ar
    23    11     6   ar
    24    15    16    1
@<TRIPOS>MOLECULE
*****
 22 24 0 0 0
SMALL
GASTEIGER

@<TRIPOS>ATOM
      1 N          62.2833   89.1304   12.0305 N.2     1  UNL1       -0.1773
      2 C          63.6524   89.7111   12.2267 C.2     1  UNL1        0.1178
      3 C          64.0096   90.3665   13.5279 C.ar    1  UNL1        0.0269
      4 C          63.1588   90.1370   14.7417 C.ar    1  UNL1        0.0037
      5 C          63.5160   90.7924   16.0427 C.ar    1  UNL1        0.0290
      6 C          64.7241   91.6773   16.1300 C.ar    1  UNL1        0.1952
      7 N          65.3206   92.4521   17.2675 N.ar    1  UNL1       -0.0020
      8 O          66.5402   93.1604   16.7566 O.2     1  UNL1       -0.0982
      9 N          66.6973   92.8233   15.3035 N.ar    1  UNL1        0.0591
     10 O          67.7858   93.3163   14.3967 O.co2   1  UNL1       -0.5772
     11 C          65.5749   91.9067   14.9162 C.ar    1  UNL1        0.3088
     12 C          65.2177   91.2513   13.6151 C.ar    1  UNL1        0.0785
     13 O          62.4850   86.1506   11.7467 O.2     1  UNL1       -0.2684
     14 C          62.0269   86.9851   10.5875 C.2     1  UNL1        0.2646
     15 N          61.9261   88.4750   10.7294 N.am    1  UNL1       -0.2023
     16 H          61.6255   89.0227    9.9686 H       1  UNL1        0.1776
     17 C          61.6696   86.3298    9.2863 C.ar    1  UNL1        0.0581
     18 C          62.7072   85.5595    8.5248 C.ar    1  UNL1        0.0252
     19 C          62.3499   84.9042    7.2237 C.ar    1  UNL1        0.0990
     20 N          60.9550   85.0192    6.6842 N.ar    1  UNL1       -0.2423
     21 C          59.9175   85.7895    7.4457 C.ar    1  UNL1        0.0990
     22 C          60.2748   86.4448    8.7468 C.ar    1  UNL1        0.0252
@<TRIPOS>UNITY_ATOM_ATTR
9 1
charge 1
10 1
charge -1
@<TRIPOS>BOND
     1    13    14    2
     2    14    15   am
     3    15     1    1
     4     1     2    2
     5     2     3    1
     6     3     4   ar
     7     4     5   ar
     8     5     6   ar
     9     6     7   ar
    10     7     8   ar
    11     8     9   ar
    12     9    10    1
    13     9    11   ar
    14    11    12   ar
    15    14    17    1
    16    17    18   ar
    17    18    19   ar
    18    19    20   ar
    19    20    21   ar
    20    21    22   ar
    21    12     3   ar
    22    22    17   ar
    23    11     6   ar
    24    15    16    1
@<TRIPOS>MOLECULE
*****
 22 24 0 0 0
SMALL
GASTEIGER

@<TRIPOS>ATOM
      1 N          63.7211   88.3609   14.4438 N.2     1  UNL1       -0.1773
      2 C          64.5041   87.0845   14.3570 C.2     1  UNL1        0.1178
      3 C          63.7959   85.7640   14.4270 C.ar    1  UNL1        0.0269
      4 C          63.1579   85.3222   15.7106 C.ar    1  UNL1        0.0037
      5 C          62.4497   84.0018   15.7805 C.ar    1  UNL1        0.0290
      6 C          62.3796   83.1231   14.5669 C.ar    1  UNL1        0.1952
      7 N          61.7551   81.7790   14.3356 N.ar    1  UNL1       -0.0020
      8 O          62.0071   81.3901   12.9090 O.2     1  UNL1       -0.0982
      9 N          62.7875   82.4938   12.2586 N.ar    1  UNL1        0.0591
     10 O          63.2554   82.5216   10.8338 O.co2   1  UNL1       -0.5772
     11 C          63.0177   83.5648   13.2833 C.ar    1  UNL1        0.3088
     12 C          63.7258   84.8853   13.2133 C.ar    1  UNL1        0.0785
     13 O          63.7277   89.9257   11.8842 O.2     1  UNL1       -0.2684
     14 C          64.4325   90.4638   13.0940 C.2     1  UNL1        0.2646
     15 N          64.4292   89.6814   14.3738 N.am    1  UNL1       -0.2023
     16 H          64.8918   90.0346   15.1679 H       1  UNL1        0.1776
     17 C          65.1407   91.7843   13.0241 C.ar    1  UNL1        0.0581
     18 C          65.8590   92.3149   14.2292 C.ar    1  UNL1        0.0252
     19 C          66.5671   93.6353   14.1592 C.ar    1  UNL1        0.0990
     20 N          66.5569   94.4252   12.8841 N.ar    1  UNL1       -0.2423
     21 C          65.8386   93.8946   11.6789 C.ar    1  UNL1        0.0990
     22 C          65.1305   92.5741   11.7489 C.ar    1  UNL1        0.0252
@<TRIPOS>UNITY_ATOM_ATTR
9 1
charge 1
10 1
charge -1
@<TRIPOS>BOND
     1    13    14    2
     2    14    15   am
     3    15     1    1
     4     1     2    2
     5     2     3    1
     6     3     4   ar
     7     4     5   ar
     8     5     6   ar
     9     6     7   ar
    10     7     8   ar
    11     8     9   ar
    12     9    10    1
    13     9    11   ar
    14    11    12   ar
    15    14    17    1
    16    17    18   ar
    17    18    19   ar
    18    19    20   ar
    19    20    21   ar
    20    21    22   ar
    21    12     3   ar
    22    22    17   ar
    23    11     6   ar
    24    15    16    1
@<TRIPOS>MOLECULE
*****
 22 24 0 0 0
SMALL
GASTEIGER

@<TRIPOS>ATOM
      1 N          62.7564   89.5802   12.9744 N.2     1  UNL1       -0.1773
      2 C          63.0576   89.0121   11.6192 C.2     1  UNL1        0.1178
      3 C          61.9440   88.4903   10.7603 C.ar    1  UNL1        0.0269
      4 C          60.5542   89.0301   10.9244 C.ar    1  UNL1        0.0037
      5 C          59.4407   88.5084   10.0655 C.ar    1  UNL1        0.0290
      6 C          59.7170   87.4467    9.0424 C.ar    1  UNL1        0.1952
      7 N          58.8277   86.7441    8.0597 N.ar    1  UNL1       -0.0020
      8 O          59.6680   85.7701    7.2883 O.2     1  UNL1       -0.0982
      9 N          61.0765   85.8707    7.7942 N.ar    1  UNL1        0.0591
     10 O          62.2490   85.0747    7.3024 O.co2   1  UNL1       -0.5772
     11 C          61.1068   86.9069    8.8783 C.ar    1  UNL1        0.3088
     12 C          62.2203   87.4287    9.7372 C.ar    1  UNL1        0.0785
     13 O          64.5075   91.8014   11.9745 O.2     1  UNL1       -0.2684
     14 C          64.7454   91.2126   13.3334 C.2     1  UNL1        0.2646
     15 N          63.8699   90.1020   13.8333 N.am    1  UNL1       -0.2023
     16 H          64.0260   89.7155   14.7252 H       1  UNL1        0.1776
     17 C          65.8590   91.7343   14.1924 C.ar    1  UNL1        0.0581
     18 C          67.2513   91.8255   13.6419 C.ar    1  UNL1        0.0252
     19 C          68.3648   92.3472   14.5009 C.ar    1  UNL1        0.0990
     20 N          68.0859   92.7778   15.9105 N.ar    1  UNL1       -0.2423
     21 C          66.6936   92.6866   16.4610 C.ar    1  UNL1        0.0990
     22 C          65.5802   92.1649   15.6020 C.ar    1  UNL1        0.0252
@<TRIPOS>UNITY_ATOM_ATTR
9 1
charge 1
10 1
charge -1
@<TRIPOS>BOND
     1    13    14    2
     2    14    15   am
     3    15     1    1
     4     1     2    2
     5     2     3    1
     6     3     4   ar
     7     4     5   ar
     8     5     6   ar
     9     6     7   ar
    10     7     8   ar
    11     8     9   ar
    12     9    10    1
    13     9    11   ar
    14    11    12   ar
    15    14    17    1
    16    17    18   ar
    17    18    19   ar
    18    19    20   ar
    19    20    21   ar
    20    21    22   ar
    21    12     3   ar
    22    22    17   ar
    23    11     6   ar
    24    15    16    1
