@<TRIPOS>MOLECULE
*****
 26 28 0 0 0
SMALL
GASTEIGER

@<TRIPOS>ATOM
      1 C          66.1695   92.9265   13.1429 C.ar    1  UNL1        0.1724
      2 C          65.4583   91.7210   13.6822 C.ar    1  UNL1        0.0400
      3 C          64.5162   90.9510   12.8048 C.ar    1  UNL1        0.0032
      4 C          63.8050   89.7455   13.3441 C.ar    1  UNL1       -0.0001
      5 C          62.8630   88.9757   12.4667 C.ar    1  UNL1       -0.0017
      6 C          62.6321   89.4114   11.0501 C.ar    1  UNL1        0.0070
      7 C          63.3432   90.6169   10.5108 C.ar    1  UNL1       -0.0016
      8 C          64.2853   91.3867   11.3882 C.ar    1  UNL1        0.0030
      9 C          64.9965   92.5923   10.8489 C.ar    1  UNL1        0.0400
     10 C          65.9386   93.3622   11.7263 C.ar    1  UNL1        0.1724
     11 C          61.6899   88.6414   10.1727 C.3     1  UNL1        0.1426
     12 O          62.8517   88.1319    9.3723 O.3     1  UNL1       -0.3770
     13 H          63.6765   88.4915    9.7346 H       1  UNL1        0.2112
     14 C          60.5282   89.1510   10.9731 C.ar    1  UNL1        0.1019
     15 C          60.0001   90.5549   10.9652 C.ar    1  UNL1        0.1404
     16 N          58.8360   90.6177   11.9093 N.ar    1  UNL1       -0.1276
     17 N          58.6448   89.2524   12.5007 N.ar    1  UNL1       -0.0674
     18 N          59.6905   88.3460   11.9221 N.ar    1  UNL1       -0.2579
     19 H          59.8068   87.3905   12.1289 H       1  UNL1        0.1904
     20 C          60.7478   87.8716    9.2954 C.3     1  UNL1        0.0340
     21 C          60.6924   86.3753    9.3856 C.3     1  UNL1        0.0031
     22 C          59.8611   88.5980    8.3279 C.3     1  UNL1        0.0031
     23 C          67.4092   93.2118   15.4083 C.3     1  UNL1        0.2526
     24 O          67.1116   93.6964   14.0203 O.3     1  UNL1       -0.4684
     25 O          66.6498   94.5678   11.1870 O.3     1  UNL1       -0.4684
     26 C          67.0348   94.6259    9.7384 C.3     1  UNL1        0.2526
@<TRIPOS>BOND
     1    23    24    1
     2    24     1    1
     3     1     2   ar
     4     2     3   ar
     5     3     4   ar
     6     4     5   ar
     7     5     6   ar
     8     6    11    1
     9    11    12    1
    10    11    14    1
    11    14    15   ar
    12    15    16   ar
    13    16    17   ar
    14    17    18   ar
    15    11    20    1
    16    20    21    1
    17    20    22    1
    18     6     7   ar
    19     7     8   ar
    20     8     9   ar
    21     9    10   ar
    22    10    25    1
    23    25    26    1
    24    10     1   ar
    25     8     3   ar
    26    18    14   ar
    27    12    13    1
    28    18    19    1
@<TRIPOS>MOLECULE
*****
 26 28 0 0 0
SMALL
GASTEIGER

@<TRIPOS>ATOM
      1 C          63.6278   89.7784   12.6618 C.ar    1  UNL1        0.1724
      2 C          64.1697   88.9304   13.7740 C.ar    1  UNL1        0.0400
      3 C          63.8656   87.4620   13.8142 C.ar    1  UNL1        0.0032
      4 C          64.4074   86.6141   14.9265 C.ar    1  UNL1       -0.0001
      5 C          64.1033   85.1458   14.9666 C.ar    1  UNL1       -0.0017
      6 C          63.2572   84.5255   13.8945 C.ar    1  UNL1        0.0070
      7 C          62.7154   85.3735   12.7822 C.ar    1  UNL1       -0.0016
      8 C          63.0195   86.8418   12.7421 C.ar    1  UNL1        0.0030
      9 C          62.4776   87.6899   11.6297 C.ar    1  UNL1        0.0400
     10 C          62.7818   89.1581   11.5896 C.ar    1  UNL1        0.1724
     11 C          62.9531   83.0572   13.9347 C.3     1  UNL1        0.1426
     12 O          62.4235   83.2050   15.3302 O.3     1  UNL1       -0.3770
     13 H          62.4947   84.1321   15.6066 H       1  UNL1        0.2112
     14 C          63.4827   82.9093   12.5391 C.ar    1  UNL1        0.1019
     15 C          62.6966   82.4696   11.3397 C.ar    1  UNL1        0.1404
     16 N          63.6195   82.4638   10.1572 N.ar    1  UNL1       -0.1276
     17 N          64.9761   82.8999   10.6259 N.ar    1  UNL1       -0.0674
     18 N          64.8916   83.1753   12.0979 N.ar    1  UNL1       -0.2579
     19 H          65.6309   83.4774   12.6735 H       1  UNL1        0.1904
     20 C          62.6490   81.5889   13.9748 C.3     1  UNL1        0.0340
     21 C          61.2341   81.1204   14.1442 C.3     1  UNL1        0.0031
     22 C          63.7597   80.5891   13.8456 C.3     1  UNL1        0.0031
     23 C          65.2432   91.7556   13.1428 C.3     1  UNL1        0.2526
     24 O          63.9320   91.2467   12.6216 O.3     1  UNL1       -0.4684
     25 O          62.2399   90.0062   10.4773 O.3     1  UNL1       -0.4684
     26 C          60.7614   90.0651   10.2310 C.3     1  UNL1        0.2526
@<TRIPOS>BOND
     1    23    24    1
     2    24     1    1
     3     1     2   ar
     4     2     3   ar
     5     3     4   ar
     6     4     5   ar
     7     5     6   ar
     8     6    11    1
     9    11    12    1
    10    11    14    1
    11    14    15   ar
    12    15    16   ar
    13    16    17   ar
    14    17    18   ar
    15    11    20    1
    16    20    21    1
    17    20    22    1
    18     6     7   ar
    19     7     8   ar
    20     8     9   ar
    21     9    10   ar
    22    10    25    1
    23    25    26    1
    24    10     1   ar
    25     8     3   ar
    26    18    14   ar
    27    12    13    1
    28    18    19    1
@<TRIPOS>MOLECULE
*****
 26 28 0 0 0
SMALL
GASTEIGER

@<TRIPOS>ATOM
      1 C          65.8135   92.4845   13.0491 C.ar    1  UNL1        0.1724
      2 C          64.8398   91.4472   13.5241 C.ar    1  UNL1        0.0400
      3 C          63.8643   90.8374   12.5614 C.ar    1  UNL1        0.0032
      4 C          62.8906   89.8000   13.0365 C.ar    1  UNL1       -0.0001
      5 C          61.9152   89.1904   12.0738 C.ar    1  UNL1       -0.0017
      6 C          61.9135   89.6180   10.6360 C.ar    1  UNL1        0.0070
      7 C          62.8872   90.6554   10.1610 C.ar    1  UNL1       -0.0016
      8 C          63.8626   91.2651   11.1237 C.ar    1  UNL1        0.0030
      9 C          64.8364   92.3025   10.6486 C.ar    1  UNL1        0.0400
     10 C          65.8118   92.9122   11.6113 C.ar    1  UNL1        0.1724
     11 C          60.9381   89.0083    9.6733 C.3     1  UNL1        0.1426
     12 O          60.4255   90.3748    9.3270 O.3     1  UNL1       -0.3770
     13 H          60.9098   91.0411    9.8393 H       1  UNL1        0.2112
     14 C          61.4506   87.6418   10.0196 C.ar    1  UNL1        0.1019
     15 C          62.4412   86.8440    9.2244 C.ar    1  UNL1        0.1404
     16 N          62.6654   85.5422    9.9353 N.ar    1  UNL1       -0.1276
     17 N          61.8132   85.5354   11.1697 N.ar    1  UNL1       -0.0674
     18 N          61.0625   86.8330   11.2219 N.ar    1  UNL1       -0.2579
     19 H          60.4267   87.1059   11.9222 H       1  UNL1        0.1904
     20 C          59.9627   88.3985    8.7107 C.3     1  UNL1        0.0340
     21 C          59.2427   87.1334    9.0728 C.3     1  UNL1        0.0031
     22 C          59.7072   89.0538    7.3857 C.3     1  UNL1        0.0031
     23 C          66.6633   92.8204   15.4812 C.3     1  UNL1        0.2526
     24 O          66.7890   93.0943   14.0118 O.3     1  UNL1       -0.4684
     25 O          66.7856   93.9496   11.1363 O.3     1  UNL1       -0.4684
     26 C          67.0056   94.1546    9.6668 C.3     1  UNL1        0.2526
@<TRIPOS>BOND
     1    23    24    1
     2    24     1    1
     3     1     2   ar
     4     2     3   ar
     5     3     4   ar
     6     4     5   ar
     7     5     6   ar
     8     6    11    1
     9    11    12    1
    10    11    14    1
    11    14    15   ar
    12    15    16   ar
    13    16    17   ar
    14    17    18   ar
    15    11    20    1
    16    20    21    1
    17    20    22    1
    18     6     7   ar
    19     7     8   ar
    20     8     9   ar
    21     9    10   ar
    22    10    25    1
    23    25    26    1
    24    10     1   ar
    25     8     3   ar
    26    18    14   ar
    27    12    13    1
    28    18    19    1
@<TRIPOS>MOLECULE
*****
 26 28 0 0 0
SMALL
GASTEIGER

@<TRIPOS>ATOM
      1 C          63.8027   90.1510   12.7850 C.ar    1  UNL1        0.1724
      2 C          63.0928   89.1585   11.9127 C.ar    1  UNL1        0.0400
      3 C          63.0159   87.7181   12.3244 C.ar    1  UNL1        0.0032
      4 C          62.3060   86.7257   11.4521 C.ar    1  UNL1       -0.0001
      5 C          62.2291   85.2853   11.8638 C.ar    1  UNL1       -0.0017
      6 C          62.8621   84.8375   13.1478 C.ar    1  UNL1        0.0070
      7 C          63.5720   85.8300   14.0201 C.ar    1  UNL1       -0.0016
      8 C          63.6489   87.2703   13.6084 C.ar    1  UNL1        0.0030
      9 C          64.3588   88.2629   14.4808 C.ar    1  UNL1        0.0400
     10 C          64.4357   89.7032   14.0691 C.ar    1  UNL1        0.1724
     11 C          62.7852   83.3971   13.5595 C.3     1  UNL1        0.1426
     12 O          62.1726   83.8035   14.8669 O.3     1  UNL1       -0.3770
     13 H          62.0874   84.7692   14.8978 H       1  UNL1        0.2112
     14 C          63.3979   82.9908   12.2520 C.ar    1  UNL1        0.1019
     15 C          62.7767   82.0840   11.2312 C.ar    1  UNL1        0.1404
     16 N          63.7343   81.9526   10.0840 N.ar    1  UNL1       -0.1276
     17 N          64.9472   82.7783   10.3959 N.ar    1  UNL1       -0.0674
     18 N          64.7393   83.4198   11.7357 N.ar    1  UNL1       -0.2579
     19 H          65.3722   84.0176   12.1955 H       1  UNL1        0.1904
     20 C          62.7084   81.9568   13.9711 C.3     1  UNL1        0.0340
     21 C          63.9646   81.1501   14.1161 C.3     1  UNL1        0.0031
     22 C          61.3752   81.3230   14.2378 C.3     1  UNL1        0.0031
     23 C          64.7348   91.9939   11.2087 C.3     1  UNL1        0.2526
     24 O          63.8796   91.5914   12.3734 O.3     1  UNL1       -0.4684
     25 O          65.1456   90.6957   14.9414 O.3     1  UNL1       -0.4684
     26 C          66.4618   91.2693   14.5073 C.3     1  UNL1        0.2526
@<TRIPOS>BOND
     1    23    24    1
     2    24     1    1
     3     1     2   ar
     4     2     3   ar
     5     3     4   ar
     6     4     5   ar
     7     5     6   ar
     8     6    11    1
     9    11    12    1
    10    11    14    1
    11    14    15   ar
    12    15    16   ar
    13    16    17   ar
    14    17    18   ar
    15    11    20    1
    16    20    21    1
    17    20    22    1
    18     6     7   ar
    19     7     8   ar
    20     8     9   ar
    21     9    10   ar
    22    10    25    1
    23    25    26    1
    24    10     1   ar
    25     8     3   ar
    26    18    14   ar
    27    12    13    1
    28    18    19    1
@<TRIPOS>MOLECULE
*****
 26 28 0 0 0
SMALL
GASTEIGER

@<TRIPOS>ATOM
      1 C          61.7852   88.0128   11.2633 C.ar    1  UNL1        0.1724
      2 C          62.6457   88.5987   12.3432 C.ar    1  UNL1        0.0400
      3 C          63.4062   89.8669   12.0910 C.ar    1  UNL1        0.0032
      4 C          64.2667   90.4528   13.1710 C.ar    1  UNL1       -0.0001
      5 C          65.0272   91.7208   12.9187 C.ar    1  UNL1       -0.0017
      6 C          64.9272   92.4029   11.5865 C.ar    1  UNL1        0.0070
      7 C          64.0668   91.8170   10.5066 C.ar    1  UNL1       -0.0016
      8 C          63.3063   90.5490   10.7588 C.ar    1  UNL1        0.0030
      9 C          62.4458   89.9630    9.6789 C.ar    1  UNL1        0.0400
     10 C          61.6853   88.6950    9.9311 C.ar    1  UNL1        0.1724
     11 C          65.6878   93.6711   11.3343 C.3     1  UNL1        0.1426
     12 O          64.7086   94.0450   10.2613 O.3     1  UNL1       -0.3770
     13 H          64.0338   93.3524   10.1838 H       1  UNL1        0.2112
     14 C          66.6669   93.2971   12.4073 C.ar    1  UNL1        0.1019
     15 C          66.6688   93.8101   13.8169 C.ar    1  UNL1        0.1404
     16 N          67.8192   93.1746   14.5400 N.ar    1  UNL1       -0.1276
     17 N          68.5283   92.2688   13.5772 N.ar    1  UNL1       -0.0674
     18 N          67.8162   92.3446   12.2592 N.ar    1  UNL1       -0.2579
     19 H          68.0602   91.8550   11.4407 H       1  UNL1        0.1904
     20 C          66.4483   94.9391   11.0822 C.3     1  UNL1        0.0340
     21 C          67.4838   94.9896    9.9981 C.3     1  UNL1        0.0031
     22 C          66.1734   96.1566   11.9141 C.3     1  UNL1        0.0031
     23 C          61.7151   85.4189   11.3920 C.3     1  UNL1        0.2526
     24 O          61.0247   86.7447   11.5155 O.3     1  UNL1       -0.4684
     25 O          60.8248   88.1090    8.8511 O.3     1  UNL1       -0.4684
     26 C          59.8650   88.9833    8.0998 C.3     1  UNL1        0.2526
@<TRIPOS>BOND
     1    23    24    1
     2    24     1    1
     3     1     2   ar
     4     2     3   ar
     5     3     4   ar
     6     4     5   ar
     7     5     6   ar
     8     6    11    1
     9    11    12    1
    10    11    14    1
    11    14    15   ar
    12    15    16   ar
    13    16    17   ar
    14    17    18   ar
    15    11    20    1
    16    20    21    1
    17    20    22    1
    18     6     7   ar
    19     7     8   ar
    20     8     9   ar
    21     9    10   ar
    22    10    25    1
    23    25    26    1
    24    10     1   ar
    25     8     3   ar
    26    18    14   ar
    27    12    13    1
    28    18    19    1
@<TRIPOS>MOLECULE
*****
 26 28 0 0 0
SMALL
GASTEIGER

@<TRIPOS>ATOM
      1 C          63.2355   81.9313   11.1754 C.ar    1  UNL1        0.1724
      2 C          63.3116   82.8233    9.9718 C.ar    1  UNL1        0.0400
      3 C          62.9420   84.2725   10.0877 C.ar    1  UNL1        0.0032
      4 C          63.0182   85.1645    8.8842 C.ar    1  UNL1       -0.0001
      5 C          62.6486   86.6135    9.0001 C.ar    1  UNL1       -0.0017
      6 C          62.2028   87.1706   10.3196 C.ar    1  UNL1        0.0070
      7 C          62.1267   86.2787   11.5231 C.ar    1  UNL1       -0.0016
      8 C          62.4963   84.8296   11.4072 C.ar    1  UNL1        0.0030
      9 C          62.4202   83.9375   12.6108 C.ar    1  UNL1        0.0400
     10 C          62.7898   82.4884   12.4948 C.ar    1  UNL1        0.1724
     11 C          61.8332   88.6198   10.4355 C.3     1  UNL1        0.1426
     12 O          62.9164   88.8146   11.4547 O.3     1  UNL1       -0.3770
     13 H          63.3752   87.9731   11.6037 H       1  UNL1        0.2112
     14 C          60.7501   88.4250    9.4163 C.ar    1  UNL1        0.1019
     15 C          59.7495   87.3076    9.3956 C.ar    1  UNL1        0.1404
     16 N          58.8583   87.5054    8.2053 N.ar    1  UNL1       -0.1276
     17 N          59.3081   88.7451    7.4904 N.ar    1  UNL1       -0.0674
     18 N          60.4772   89.3134    8.2388 N.ar    1  UNL1       -0.2579
     19 H          60.9776   90.1267    7.9993 H       1  UNL1        0.1904
     20 C          61.4636   90.0689   10.5513 C.3     1  UNL1        0.0340
     21 C          60.0928   90.4582   11.0198 C.3     1  UNL1        0.0031
     22 C          62.4648   91.1288   10.1987 C.3     1  UNL1        0.0031
     23 C          62.9612   79.6255   10.0100 C.3     1  UNL1        0.2526
     24 O          63.6051   80.4821   11.0595 O.3     1  UNL1       -0.4684
     25 O          62.7136   81.5963   13.6984 O.3     1  UNL1       -0.4684
     26 C          61.3891   81.0544   14.1477 C.3     1  UNL1        0.2526
@<TRIPOS>BOND
     1    23    24    1
     2    24     1    1
     3     1     2   ar
     4     2     3   ar
     5     3     4   ar
     6     4     5   ar
     7     5     6   ar
     8     6    11    1
     9    11    12    1
    10    11    14    1
    11    14    15   ar
    12    15    16   ar
    13    16    17   ar
    14    17    18   ar
    15    11    20    1
    16    20    21    1
    17    20    22    1
    18     6     7   ar
    19     7     8   ar
    20     8     9   ar
    21     9    10   ar
    22    10    25    1
    23    25    26    1
    24    10     1   ar
    25     8     3   ar
    26    18    14   ar
    27    12    13    1
    28    18    19    1
@<TRIPOS>MOLECULE
*****
 26 28 0 0 0
SMALL
GASTEIGER

@<TRIPOS>ATOM
      1 C          61.8878   87.9106   10.9167 C.ar    1  UNL1        0.1724
      2 C          62.6571   87.7565   12.1952 C.ar    1  UNL1        0.0400
      3 C          63.4844   88.8949   12.7146 C.ar    1  UNL1        0.0032
      4 C          64.2536   88.7408   13.9931 C.ar    1  UNL1       -0.0001
      5 C          65.0808   89.8792   14.5124 C.ar    1  UNL1       -0.0017
      6 C          65.1388   91.1716   13.7533 C.ar    1  UNL1        0.0070
      7 C          64.3696   91.3257   12.4748 C.ar    1  UNL1       -0.0016
      8 C          63.5424   90.1873   11.9555 C.ar    1  UNL1        0.0030
      9 C          62.7731   90.3413   10.6769 C.ar    1  UNL1        0.0400
     10 C          61.9459   89.2030   10.1576 C.ar    1  UNL1        0.1724
     11 C          65.9661   92.3100   14.2727 C.3     1  UNL1        0.1426
     12 O          65.0638   92.4215   15.4657 O.3     1  UNL1       -0.3770
     13 H          64.3649   91.7515   15.4062 H       1  UNL1        0.2112
     14 C          66.8685   92.1985   13.0797 C.ar    1  UNL1        0.1019
     15 C          66.5495   92.6557   11.6871 C.ar    1  UNL1        0.1404
     16 N          67.7322   92.3500   10.8165 N.ar    1  UNL1       -0.1276
     17 N          68.7821   91.7038   11.6711 N.ar    1  UNL1       -0.0674
     18 N          68.2483   91.6102   13.0697 N.ar    1  UNL1       -0.2579
     19 H          68.7207   91.2295   13.8451 H       1  UNL1        0.1904
     20 C          66.7934   93.4484   14.7920 C.3     1  UNL1        0.0340
     21 C          66.8494   94.7417   14.0343 C.3     1  UNL1        0.0031
     22 C          67.5647   93.2934   16.0692 C.3     1  UNL1        0.0031
     23 C          61.5652   85.9369    9.2582 C.3     1  UNL1        0.2526
     24 O          61.0606   86.7722   10.3973 O.3     1  UNL1       -0.4684
     25 O          61.1766   89.3570    8.8790 O.3     1  UNL1       -0.4684
     26 C          59.6818   89.2321    8.8835 C.3     1  UNL1        0.2526
@<TRIPOS>BOND
     1    23    24    1
     2    24     1    1
     3     1     2   ar
     4     2     3   ar
     5     3     4   ar
     6     4     5   ar
     7     5     6   ar
     8     6    11    1
     9    11    12    1
    10    11    14    1
    11    14    15   ar
    12    15    16   ar
    13    16    17   ar
    14    17    18   ar
    15    11    20    1
    16    20    21    1
    17    20    22    1
    18     6     7   ar
    19     7     8   ar
    20     8     9   ar
    21     9    10   ar
    22    10    25    1
    23    25    26    1
    24    10     1   ar
    25     8     3   ar
    26    18    14   ar
    27    12    13    1
    28    18    19    1
@<TRIPOS>MOLECULE
*****
 26 28 0 0 0
SMALL
GASTEIGER

@<TRIPOS>ATOM
      1 C          61.0457   88.1900    9.3049 C.ar    1  UNL1        0.1724
      2 C          61.9124   87.0730    8.8036 C.ar    1  UNL1        0.0400
      3 C          62.2432   85.9189    9.7030 C.ar    1  UNL1        0.0032
      4 C          63.1098   84.8020    9.2017 C.ar    1  UNL1       -0.0001
      5 C          63.4406   83.6480   10.1010 C.ar    1  UNL1       -0.0017
      6 C          62.9048   83.6109   11.5016 C.ar    1  UNL1        0.0070
      7 C          62.0381   84.7279   12.0028 C.ar    1  UNL1       -0.0016
      8 C          61.7073   85.8819   11.1035 C.ar    1  UNL1        0.0030
      9 C          60.8407   86.9990   11.6047 C.ar    1  UNL1        0.0400
     10 C          60.5099   88.1530   10.7054 C.ar    1  UNL1        0.1724
     11 C          63.2356   82.4568   12.4009 C.3     1  UNL1        0.1426
     12 O          62.8086   81.4988   11.3286 O.3     1  UNL1       -0.3770
     13 H          62.5149   81.9959   10.5491 H       1  UNL1        0.2112
     14 C          63.6625   83.4148   13.4732 C.ar    1  UNL1        0.1019
     15 C          62.9205   83.7030   14.7445 C.ar    1  UNL1        0.1404
     16 N          63.7059   84.7193   15.5195 N.ar    1  UNL1       -0.1276
     17 N          64.9334   85.0591   14.7271 N.ar    1  UNL1       -0.0674
     18 N          64.9066   84.2530   13.4624 N.ar    1  UNL1       -0.2579
     19 H          65.5862   84.2708   12.7503 H       1  UNL1        0.1904
     20 C          63.5664   81.3028   13.3002 C.3     1  UNL1        0.0340
     21 C          64.9619   81.1366   13.8245 C.3     1  UNL1        0.0031
     22 C          62.5017   80.3149   13.6751 C.3     1  UNL1        0.0031
     23 C          59.6152   89.2152    7.3936 C.3     1  UNL1        0.2526
     24 O          60.7149   89.3441    8.4056 O.3     1  UNL1       -0.4684
     25 O          59.6432   89.2700   11.2066 O.3     1  UNL1       -0.4684
     26 C          58.9463   89.1432   12.5288 C.3     1  UNL1        0.2526
@<TRIPOS>BOND
     1    23    24    1
     2    24     1    1
     3     1     2   ar
     4     2     3   ar
     5     3     4   ar
     6     4     5   ar
     7     5     6   ar
     8     6    11    1
     9    11    12    1
    10    11    14    1
    11    14    15   ar
    12    15    16   ar
    13    16    17   ar
    14    17    18   ar
    15    11    20    1
    16    20    21    1
    17    20    22    1
    18     6     7   ar
    19     7     8   ar
    20     8     9   ar
    21     9    10   ar
    22    10    25    1
    23    25    26    1
    24    10     1   ar
    25     8     3   ar
    26    18    14   ar
    27    12    13    1
    28    18    19    1
@<TRIPOS>MOLECULE
*****
 26 28 0 0 0
SMALL
GASTEIGER

@<TRIPOS>ATOM
      1 C          63.8009   82.6897   12.6043 C.ar    1  UNL1        0.1724
      2 C          63.8373   83.0570   11.1505 C.ar    1  UNL1        0.0400
      3 C          63.1000   84.2695   10.6645 C.ar    1  UNL1        0.0032
      4 C          63.1365   84.6369    9.2106 C.ar    1  UNL1       -0.0001
      5 C          62.3992   85.8494    8.7247 C.ar    1  UNL1       -0.0017
      6 C          61.6254   86.6946    9.6927 C.ar    1  UNL1        0.0070
      7 C          61.5889   86.3273   11.1465 C.ar    1  UNL1       -0.0016
      8 C          62.3262   85.1147   11.6324 C.ar    1  UNL1        0.0030
      9 C          62.2898   84.7474   13.0863 C.ar    1  UNL1        0.0400
     10 C          63.0271   83.5348   13.5722 C.ar    1  UNL1        0.1724
     11 C          60.8881   87.9071    9.2067 C.3     1  UNL1        0.1426
     12 O          60.2622   87.0895    8.1160 O.3     1  UNL1       -0.3770
     13 H          60.5768   86.1740    8.1772 H       1  UNL1        0.2112
     14 C          61.5140   88.7248   10.2974 C.ar    1  UNL1        0.1019
     15 C          62.7421   89.5762   10.1670 C.ar    1  UNL1        0.1404
     16 N          63.0088   90.2122   11.4991 N.ar    1  UNL1       -0.1276
     17 N          61.9455   89.7540   12.4527 N.ar    1  UNL1       -0.0674
     18 N          61.0217   88.8347   11.7101 N.ar    1  UNL1       -0.2579
     19 H          60.2310   88.3828   12.0842 H       1  UNL1        0.1904
     20 C          60.1508   89.1197    8.7208 C.3     1  UNL1        0.0340
     21 C          59.7270   89.2144    7.2850 C.3     1  UNL1        0.0031
     22 C          59.8374   90.2376    9.6706 C.3     1  UNL1        0.0031
     23 C          63.7876   80.3548   13.7439 C.3     1  UNL1        0.2526
     24 O          64.5382   81.4771   13.0903 O.3     1  UNL1       -0.4684
     25 O          62.9906   83.1675   15.0261 O.3     1  UNL1       -0.4684
     26 C          62.5795   84.1866   16.0471 C.3     1  UNL1        0.2526
@<TRIPOS>BOND
     1    23    24    1
     2    24     1    1
     3     1     2   ar
     4     2     3   ar
     5     3     4   ar
     6     4     5   ar
     7     5     6   ar
     8     6    11    1
     9    11    12    1
    10    11    14    1
    11    14    15   ar
    12    15    16   ar
    13    16    17   ar
    14    17    18   ar
    15    11    20    1
    16    20    21    1
    17    20    22    1
    18     6     7   ar
    19     7     8   ar
    20     8     9   ar
    21     9    10   ar
    22    10    25    1
    23    25    26    1
    24    10     1   ar
    25     8     3   ar
    26    18    14   ar
    27    12    13    1
    28    18    19    1
