@<TRIPOS>MOLECULE
*****
 38 43 0 0 0
SMALL
GASTEIGER

@<TRIPOS>ATOM
      1 N          64.2868   86.2715   14.4059 N.pl3   1  UNL1       -0.2824
      2 H          65.0176   85.7780   14.8437 H       1  UNL1        0.1551
      3 C          63.4937   90.1597   14.4515 C.ar    1  UNL1        0.1367
      4 C          63.1244   90.3569   15.8919 C.ar    1  UNL1        0.0552
      5 C          63.1425   89.1922   16.8370 C.ar    1  UNL1        0.1047
      6 N          63.5300   87.8304   16.3416 N.ar    1  UNL1       -0.2119
      7 C          63.8993   87.6333   14.9012 C.ar    1  UNL1        0.2218
      8 N          63.8812   88.7979   13.9562 N.ar    1  UNL1       -0.1985
      9 N          63.4755   91.3244   13.5065 N.pl3   1  UNL1       -0.2947
     10 H          62.6361   91.8117   13.3419 H       1  UNL1        0.1537
     11 CL         63.4886   91.7260   10.5334 Cl      1  UNL1       -0.0808
     12 C          64.7430   91.9476   11.3257 C.ar    1  UNL1        0.0742
     13 C          66.0037   92.3698   10.6315 C.ar    1  UNL1        0.0160
     14 C          67.2580   92.5914   11.4237 C.ar    1  UNL1        0.0411
     15 C          67.2515   92.3906   12.9101 C.ar    1  UNL1        0.1777
     16 C          65.9907   91.9683   13.6044 C.ar    1  UNL1        0.1905
     17 C          64.7364   91.7468   12.8122 C.ar    1  UNL1        0.0977
     18 O          66.2863   91.8492   15.0702 O.3     1  UNL1       -0.4333
     19 C          67.7297   92.1978   15.2818 C.3     1  UNL1        0.4294
     20 O          68.3263   92.5325   13.9468 O.3     1  UNL1       -0.4346
     21 C          63.5608   85.6615   13.2437 C.ar    1  UNL1        0.0529
     22 C          63.5449   84.1719   13.0674 C.ar    1  UNL1        0.0293
     23 C          62.8189   83.5619   11.9052 C.ar    1  UNL1        0.0505
     24 C          62.1089   84.4414   10.9191 C.ar    1  UNL1        0.0291
     25 C          62.1249   85.9309   11.0953 C.ar    1  UNL1        0.0505
     26 C          62.8508   86.5410   12.2576 C.ar    1  UNL1        0.0293
     27 N          62.8031   82.0723   11.7290 N.pl3   1  UNL1       -0.3027
     28 C          63.1018   81.4726   10.3870 C.3     1  UNL1        0.1231
     29 C          63.0860   79.9831   10.2108 C.3     1  UNL1        0.1636
     30 O          62.7712   79.0933   11.3768 O.3     1  UNL1       -0.3501
     31 C          62.4725   79.6931   12.7187 C.3     1  UNL1        0.1636
     32 C          62.4884   81.1826   12.8949 C.3     1  UNL1        0.1231
     33 N          61.4148   86.8104   10.1093 N.pl3   1  UNL1       -0.3027
     34 C          60.6625   86.1989    8.9646 C.3     1  UNL1        0.1231
     35 C          59.9525   87.0784    7.9785 C.3     1  UNL1        0.1636
     36 O          59.9948   88.5695    8.1371 O.3     1  UNL1       -0.3501
     37 C          60.7471   89.1810    9.2817 C.3     1  UNL1        0.1636
     38 C          61.4571   88.3014   10.2678 C.3     1  UNL1        0.1231
@<TRIPOS>BOND
     1    11    12    1
     2    12    13   ar
     3    13    14   ar
     4    14    15   ar
     5    15    16   ar
     6    16    17   ar
     7    17     9    1
     8     9     3    1
     9     3     4   ar
    10     4     5   ar
    11     5     6   ar
    12     6     7   ar
    13     7     1    1
    14     1    21    1
    15    21    22   ar
    16    22    23   ar
    17    23    27    1
    18    27    28    1
    19    28    29    1
    20    29    30    1
    21    30    31    1
    22    31    32    1
    23    23    24   ar
    24    24    25   ar
    25    25    33    1
    26    33    34    1
    27    34    35    1
    28    35    36    1
    29    36    37    1
    30    37    38    1
    31    25    26   ar
    32     7     8   ar
    33    16    18    1
    34    18    19    1
    35    19    20    1
    36    17    12   ar
    37     8     3   ar
    38    20    15    1
    39    26    21   ar
    40    32    27    1
    41    38    33    1
    42     9    10    1
    43     1     2    1
@<TRIPOS>MOLECULE
*****
 38 43 0 0 0
SMALL
GASTEIGER

@<TRIPOS>ATOM
      1 N          64.3004   86.2350   14.4230 N.pl3   1  UNL1       -0.2824
      2 H          65.0393   85.7439   14.8497 H       1  UNL1        0.1551
      3 C          63.4682   90.1140   14.5250 C.ar    1  UNL1        0.1367
      4 C          63.1033   90.2878   15.9696 C.ar    1  UNL1        0.0552
      5 C          63.1374   89.1106   16.8986 C.ar    1  UNL1        0.1047
      6 N          63.5365   87.7597   16.3830 N.ar    1  UNL1       -0.2119
      7 C          63.9014   87.5860   14.9385 C.ar    1  UNL1        0.2218
      8 N          63.8672   88.7631   14.0095 N.ar    1  UNL1       -0.1985
      9 N          63.4340   91.2913   13.5961 N.pl3   1  UNL1       -0.2947
     10 H          62.5908   91.7777   13.4487 H       1  UNL1        0.1537
     11 CL         63.4429   91.6058   10.6126 Cl      1  UNL1       -0.0808
     12 C          64.6889   91.8847   11.3999 C.ar    1  UNL1        0.0742
     13 C          65.9393   92.3208   10.6955 C.ar    1  UNL1        0.0160
     14 C          67.1853   92.5996   11.4827 C.ar    1  UNL1        0.0411
     15 C          67.1808   92.4424   12.9745 C.ar    1  UNL1        0.1777
     16 C          65.9304   92.0063   13.6789 C.ar    1  UNL1        0.1905
     17 C          64.6844   91.7274   12.8917 C.ar    1  UNL1        0.0977
     18 O          66.2257   91.9382   15.1480 O.3     1  UNL1       -0.4333
     19 C          67.6586   92.3323   15.3515 C.3     1  UNL1        0.4294
     20 O          68.2489   92.6439   14.0082 O.3     1  UNL1       -0.4346
     21 C          63.5738   85.6325   13.2573 C.ar    1  UNL1        0.0529
     22 C          62.8649   86.5184   12.2761 C.ar    1  UNL1        0.0293
     23 C          62.1383   85.9159   11.1104 C.ar    1  UNL1        0.0505
     24 C          62.1206   84.4274   10.9257 C.ar    1  UNL1        0.0291
     25 C          62.8295   83.5415   11.9068 C.ar    1  UNL1        0.0505
     26 C          63.5561   84.1440   13.0726 C.ar    1  UNL1        0.0293
     27 N          61.4293   86.8018   10.1293 N.pl3   1  UNL1       -0.3027
     28 C          61.4915   88.2925   10.2838 C.3     1  UNL1        0.1231
     29 C          60.7826   89.1785    9.3027 C.3     1  UNL1        0.1636
     30 O          60.0115   88.5736    8.1671 O.3     1  UNL1       -0.3501
     31 C          59.9493   87.0830    8.0126 C.3     1  UNL1        0.1636
     32 C          60.6583   86.1970    8.9937 C.3     1  UNL1        0.1231
     33 N          62.8118   82.0530   11.7222 N.pl3   1  UNL1       -0.3027
     34 C          62.4983   81.1567   12.8835 C.3     1  UNL1        0.1231
     35 C          62.4806   79.6683   12.6988 C.3     1  UNL1        0.1636
     36 O          62.7764   79.0760   11.3528 O.3     1  UNL1       -0.3501
     37 C          63.0899   79.9721   10.1914 C.3     1  UNL1        0.1636
     38 C          63.1076   81.4607   10.3762 C.3     1  UNL1        0.1231
@<TRIPOS>BOND
     1    11    12    1
     2    12    13   ar
     3    13    14   ar
     4    14    15   ar
     5    15    16   ar
     6    16    17   ar
     7    17     9    1
     8     9     3    1
     9     3     4   ar
    10     4     5   ar
    11     5     6   ar
    12     6     7   ar
    13     7     1    1
    14     1    21    1
    15    21    22   ar
    16    22    23   ar
    17    23    27    1
    18    27    28    1
    19    28    29    1
    20    29    30    1
    21    30    31    1
    22    31    32    1
    23    23    24   ar
    24    24    25   ar
    25    25    33    1
    26    33    34    1
    27    34    35    1
    28    35    36    1
    29    36    37    1
    30    37    38    1
    31    25    26   ar
    32     7     8   ar
    33    16    18    1
    34    18    19    1
    35    19    20    1
    36    17    12   ar
    37     8     3   ar
    38    20    15    1
    39    26    21   ar
    40    32    27    1
    41    38    33    1
    42     9    10    1
    43     1     2    1
@<TRIPOS>MOLECULE
*****
 38 43 0 0 0
SMALL
GASTEIGER

@<TRIPOS>ATOM
      1 N          63.1245   91.1768   12.6590 N.pl3   1  UNL1       -0.2824
      2 H          62.4092   91.8532   12.6603 H       1  UNL1        0.1551
      3 C          66.9361   92.2721   12.5109 C.ar    1  UNL1        0.1367
      4 C          67.2812   92.2955   13.9705 C.ar    1  UNL1        0.0552
      5 C          66.2408   91.9460   14.9929 C.ar    1  UNL1        0.1047
      6 N          64.8553   91.5731   14.5557 N.ar    1  UNL1       -0.2119
      7 C          64.5101   91.5497   13.0962 C.ar    1  UNL1        0.2218
      8 N          65.5505   91.8992   12.0737 N.ar    1  UNL1       -0.1985
      9 N          67.9765   92.6217   11.4886 N.pl3   1  UNL1       -0.2947
     10 H          68.8831   92.2444   11.5600 H       1  UNL1        0.1537
     11 CL         68.8917   91.9847    8.7034 Cl      1  UNL1       -0.0808
     12 C          68.0934   93.2275    8.9647 C.ar    1  UNL1        0.0742
     13 C          67.7527   94.1517    7.8336 C.ar    1  UNL1        0.0160
     14 C          66.9544   95.3945    8.0949 C.ar    1  UNL1        0.0411
     15 C          66.4968   95.7130    9.4874 C.ar    1  UNL1        0.1777
     16 C          66.8375   94.7887   10.6186 C.ar    1  UNL1        0.1905
     17 C          67.6358   93.5460   10.3574 C.ar    1  UNL1        0.0977
     18 O          66.2532   95.3603   11.8763 O.3     1  UNL1       -0.4333
     19 C          65.5513   96.6379   11.5224 C.3     1  UNL1        0.4294
     20 O          65.7019   96.8558   10.0460 O.3     1  UNL1       -0.4346
     21 C          62.8288   89.7734   12.2199 C.ar    1  UNL1        0.0529
     22 C          61.9756   89.5300   11.0104 C.ar    1  UNL1        0.0293
     23 C          61.6798   88.1266   10.5712 C.ar    1  UNL1        0.0505
     24 C          62.2372   86.9664   11.3415 C.ar    1  UNL1        0.0291
     25 C          63.0904   87.2098   12.5510 C.ar    1  UNL1        0.0505
     26 C          63.3862   88.6132   12.9902 C.ar    1  UNL1        0.0293
     27 N          60.8266   87.8833    9.3617 N.pl3   1  UNL1       -0.3027
     28 C          60.1973   89.0397    8.6428 C.3     1  UNL1        0.1231
     29 C          59.3442   88.7964    7.4333 C.3     1  UNL1        0.1636
     30 O          59.1204   87.3966    6.9427 O.3     1  UNL1       -0.3501
     31 C          59.7497   86.2403    7.6615 C.3     1  UNL1        0.1636
     32 C          60.6028   86.4836    8.8711 C.3     1  UNL1        0.1231
     33 N          63.6478   86.0497   13.3213 N.pl3   1  UNL1       -0.3027
     34 C          64.3065   86.2782   14.6495 C.3     1  UNL1        0.1231
     35 C          64.8639   85.1181   15.4198 C.3     1  UNL1        0.1636
     36 O          64.7626   83.7293   14.8620 O.3     1  UNL1       -0.3501
     37 C          64.1039   83.5007   13.5339 C.3     1  UNL1        0.1636
     38 C          63.5465   84.6609   12.7636 C.3     1  UNL1        0.1231
@<TRIPOS>BOND
     1    11    12    1
     2    12    13   ar
     3    13    14   ar
     4    14    15   ar
     5    15    16   ar
     6    16    17   ar
     7    17     9    1
     8     9     3    1
     9     3     4   ar
    10     4     5   ar
    11     5     6   ar
    12     6     7   ar
    13     7     1    1
    14     1    21    1
    15    21    22   ar
    16    22    23   ar
    17    23    27    1
    18    27    28    1
    19    28    29    1
    20    29    30    1
    21    30    31    1
    22    31    32    1
    23    23    24   ar
    24    24    25   ar
    25    25    33    1
    26    33    34    1
    27    34    35    1
    28    35    36    1
    29    36    37    1
    30    37    38    1
    31    25    26   ar
    32     7     8   ar
    33    16    18    1
    34    18    19    1
    35    19    20    1
    36    17    12   ar
    37     8     3   ar
    38    20    15    1
    39    26    21   ar
    40    32    27    1
    41    38    33    1
    42     9    10    1
    43     1     2    1
@<TRIPOS>MOLECULE
*****
 38 43 0 0 0
SMALL
GASTEIGER

@<TRIPOS>ATOM
      1 N          63.1296   91.1928   12.7957 N.pl3   1  UNL1       -0.2824
      2 H          62.4007   91.8511   12.8623 H       1  UNL1        0.1551
      3 C          66.9447   92.2372   12.4728 C.ar    1  UNL1        0.1367
      4 C          67.3274   92.3630   13.9177 C.ar    1  UNL1        0.0552
      5 C          66.3109   92.0987   14.9886 C.ar    1  UNL1        0.1047
      6 N          64.9117   91.7086   14.6146 N.ar    1  UNL1       -0.2119
      7 C          64.5289   91.5828   13.1697 C.ar    1  UNL1        0.2218
      8 N          65.5454   91.8471   12.0988 N.ar    1  UNL1       -0.1985
      9 N          67.9612   92.5015   11.4020 N.pl3   1  UNL1       -0.2947
     10 H          68.8249   92.0292   11.4158 H       1  UNL1        0.1537
     11 CL         68.9095   91.9730    8.6053 Cl      1  UNL1       -0.0808
     12 C          68.1360   93.2212    8.9116 C.ar    1  UNL1        0.0742
     13 C          67.8367   94.2051    7.8197 C.ar    1  UNL1        0.0160
     14 C          67.0632   95.4532    8.1261 C.ar    1  UNL1        0.0411
     15 C          66.5891   95.7175    9.5244 C.ar    1  UNL1        0.1777
     16 C          66.8884   94.7336   10.6164 C.ar    1  UNL1        0.1905
     17 C          67.6619   93.4855   10.3101 C.ar    1  UNL1        0.0977
     18 O          66.2959   95.2600   11.8899 O.3     1  UNL1       -0.4333
     19 C          65.6303   96.5692   11.5850 C.3     1  UNL1        0.4294
     20 O          65.8115   96.8520   10.1230 O.3     1  UNL1       -0.4346
     21 C          62.8410   89.7997   12.3203 C.ar    1  UNL1        0.0529
     22 C          63.4110   88.6231   13.0556 C.ar    1  UNL1        0.0293
     23 C          63.1224   87.2300   12.5802 C.ar    1  UNL1        0.0505
     24 C          62.2638   87.0135   11.3694 C.ar    1  UNL1        0.0291
     25 C          61.6939   88.1902   10.6341 C.ar    1  UNL1        0.0505
     26 C          61.9824   89.5832   11.1095 C.ar    1  UNL1        0.0293
     27 N          63.6924   86.0534   13.3155 N.pl3   1  UNL1       -0.3027
     28 C          63.6395   84.6867   12.6997 C.3     1  UNL1        0.1231
     29 C          64.2095   83.5101   13.4350 C.3     1  UNL1        0.1636
     30 O          64.8324   83.7003   14.7863 O.3     1  UNL1       -0.3501
     31 C          64.8853   85.0670   15.4021 C.3     1  UNL1        0.1636
     32 C          64.3153   86.2436   14.6667 C.3     1  UNL1        0.1231
     33 N          60.8353   87.9737    9.4233 N.pl3   1  UNL1       -0.3027
     34 C          60.5178   86.5800    8.9684 C.3     1  UNL1        0.1231
     35 C          59.6592   86.3635    7.7576 C.3     1  UNL1        0.1636
     36 O          59.1181   87.5407    7.0017 O.3     1  UNL1       -0.3501
     37 C          59.4356   88.9344    7.4565 C.3     1  UNL1        0.1636
     38 C          60.2942   89.1509    8.6674 C.3     1  UNL1        0.1231
@<TRIPOS>BOND
     1    11    12    1
     2    12    13   ar
     3    13    14   ar
     4    14    15   ar
     5    15    16   ar
     6    16    17   ar
     7    17     9    1
     8     9     3    1
     9     3     4   ar
    10     4     5   ar
    11     5     6   ar
    12     6     7   ar
    13     7     1    1
    14     1    21    1
    15    21    22   ar
    16    22    23   ar
    17    23    27    1
    18    27    28    1
    19    28    29    1
    20    29    30    1
    21    30    31    1
    22    31    32    1
    23    23    24   ar
    24    24    25   ar
    25    25    33    1
    26    33    34    1
    27    34    35    1
    28    35    36    1
    29    36    37    1
    30    37    38    1
    31    25    26   ar
    32     7     8   ar
    33    16    18    1
    34    18    19    1
    35    19    20    1
    36    17    12   ar
    37     8     3   ar
    38    20    15    1
    39    26    21   ar
    40    32    27    1
    41    38    33    1
    42     9    10    1
    43     1     2    1
@<TRIPOS>MOLECULE
*****
 38 43 0 0 0
SMALL
GASTEIGER

@<TRIPOS>ATOM
      1 N          62.9331   91.0159   12.6045 N.pl3   1  UNL1       -0.2824
      2 H          62.1904   91.6619   12.5859 H       1  UNL1        0.1551
      3 C          66.2485   93.1552   13.0307 C.ar    1  UNL1        0.1367
      4 C          67.0065   92.3108   14.0117 C.ar    1  UNL1        0.0552
      5 C          66.4068   91.0348   14.5237 C.ar    1  UNL1        0.1047
      6 N          65.0490   90.6032   14.0546 N.ar    1  UNL1       -0.2119
      7 C          64.2909   91.4475   13.0736 C.ar    1  UNL1        0.2218
      8 N          64.8906   92.7236   12.5617 N.ar    1  UNL1       -0.1985
      9 N          66.8483   94.4312   12.5189 N.pl3   1  UNL1       -0.2947
     10 H          67.2308   95.0830   13.1497 H       1  UNL1        0.1537
     11 CL         65.4481   96.8556   11.4407 Cl      1  UNL1       -0.0808
     12 C          66.1651   95.9262   10.5067 C.ar    1  UNL1        0.0742
     13 C          66.1820   96.2090    9.0338 C.ar    1  UNL1        0.0160
     14 C          66.8990   95.2797    8.0998 C.ar    1  UNL1        0.0411
     15 C          67.5990   94.0675    8.6388 C.ar    1  UNL1        0.1777
     16 C          67.5821   93.7846   10.1118 C.ar    1  UNL1        0.1905
     17 C          66.8652   94.7140   11.0458 C.ar    1  UNL1        0.0977
     18 O          68.3550   92.5214   10.3502 O.3     1  UNL1       -0.4333
     19 C          68.8495   92.0235    9.0245 C.3     1  UNL1        0.4294
     20 O          68.3823   92.9790    7.9668 O.3     1  UNL1       -0.4346
     21 C          62.7068   89.6001   12.1640 C.ar    1  UNL1        0.0529
     22 C          61.8863   89.3174   10.9405 C.ar    1  UNL1        0.0293
     23 C          61.6599   87.9016   10.4998 C.ar    1  UNL1        0.0505
     24 C          62.2540   86.7684   11.2827 C.ar    1  UNL1        0.0291
     25 C          63.0745   87.0511   12.5062 C.ar    1  UNL1        0.0505
     26 C          63.3009   88.4669   12.9468 C.ar    1  UNL1        0.0293
     27 N          60.8394   87.6190    9.2763 N.pl3   1  UNL1       -0.3027
     28 C          60.0670   88.7243    8.6195 C.3     1  UNL1        0.1231
     29 C          59.2465   88.4417    7.3960 C.3     1  UNL1        0.1636
     30 O          59.1985   87.0536    6.8294 O.3     1  UNL1       -0.3501
     31 C          59.9710   85.9483    7.4862 C.3     1  UNL1        0.1636
     32 C          60.7915   86.2310    8.7097 C.3     1  UNL1        0.1231
     33 N          63.6686   85.9179   13.2890 N.pl3   1  UNL1       -0.3027
     34 C          64.2931   86.1774   14.6280 C.3     1  UNL1        0.1231
     35 C          64.8872   85.0442   15.4108 C.3     1  UNL1        0.1636
     36 O          64.8568   83.6514   14.8547 O.3     1  UNL1       -0.3501
     37 C          64.2324   83.3918   13.5158 C.3     1  UNL1        0.1636
     38 C          63.6383   84.5251   12.7330 C.3     1  UNL1        0.1231
@<TRIPOS>BOND
     1    11    12    1
     2    12    13   ar
     3    13    14   ar
     4    14    15   ar
     5    15    16   ar
     6    16    17   ar
     7    17     9    1
     8     9     3    1
     9     3     4   ar
    10     4     5   ar
    11     5     6   ar
    12     6     7   ar
    13     7     1    1
    14     1    21    1
    15    21    22   ar
    16    22    23   ar
    17    23    27    1
    18    27    28    1
    19    28    29    1
    20    29    30    1
    21    30    31    1
    22    31    32    1
    23    23    24   ar
    24    24    25   ar
    25    25    33    1
    26    33    34    1
    27    34    35    1
    28    35    36    1
    29    36    37    1
    30    37    38    1
    31    25    26   ar
    32     7     8   ar
    33    16    18    1
    34    18    19    1
    35    19    20    1
    36    17    12   ar
    37     8     3   ar
    38    20    15    1
    39    26    21   ar
    40    32    27    1
    41    38    33    1
    42     9    10    1
    43     1     2    1
@<TRIPOS>MOLECULE
*****
 38 43 0 0 0
SMALL
GASTEIGER

@<TRIPOS>ATOM
      1 N          62.9325   90.9931   12.7361 N.pl3   1  UNL1       -0.2824
      2 H          62.1800   91.6269   12.7715 H       1  UNL1        0.1551
      3 C          66.2421   93.1598   13.0554 C.ar    1  UNL1        0.1367
      4 C          67.0463   92.3119   13.9959 C.ar    1  UNL1        0.0552
      5 C          66.4792   91.0245   14.5164 C.ar    1  UNL1        0.1047
      6 N          65.1080   90.5849   14.0965 N.ar    1  UNL1       -0.2119
      7 C          64.3037   91.4327   13.1560 C.ar    1  UNL1        0.2218
      8 N          64.8708   92.7201   12.6355 N.ar    1  UNL1       -0.1985
      9 N          66.8092   94.4472   12.5350 N.pl3   1  UNL1       -0.2947
     10 H          67.1618   95.1190   13.1623 H       1  UNL1        0.1537
     11 CL         65.4140   96.8544   11.4129 Cl      1  UNL1       -0.0808
     12 C          66.1415   95.9146   10.4976 C.ar    1  UNL1        0.0742
     13 C          66.1713   96.1785    9.0213 C.ar    1  UNL1        0.0160
     14 C          66.8988   95.2388    8.1060 C.ar    1  UNL1        0.0411
     15 C          67.5963   94.0352    8.6670 C.ar    1  UNL1        0.1777
     16 C          67.5665   93.7713   10.1433 C.ar    1  UNL1        0.1905
     17 C          66.8391   94.7110   11.0586 C.ar    1  UNL1        0.0977
     18 O          68.3397   92.5129   10.4050 O.3     1  UNL1       -0.4333
     19 C          68.8475   91.9991    9.0904 C.3     1  UNL1        0.4294
     20 O          68.3880   92.9399    8.0162 O.3     1  UNL1       -0.4346
     21 C          62.7077   89.5878   12.2622 C.ar    1  UNL1        0.0529
     22 C          63.3033   88.4371   13.0179 C.ar    1  UNL1        0.0293
     23 C          63.0785   87.0318   12.5441 C.ar    1  UNL1        0.0505
     24 C          62.2581   86.7771   11.3144 C.ar    1  UNL1        0.0291
     25 C          61.6625   87.9278   10.5587 C.ar    1  UNL1        0.0505
     26 C          61.8872   89.3332   11.0325 C.ar    1  UNL1        0.0293
     27 N          63.6742   85.8811   13.2999 N.pl3   1  UNL1       -0.3027
     28 C          64.3662   86.1214   14.6088 C.3     1  UNL1        0.1231
     29 C          64.9618   84.9708   15.3646 C.3     1  UNL1        0.1636
     30 O          64.8654   83.5798   14.8114 O.3     1  UNL1       -0.3501
     31 C          64.1735   83.3396   13.5025 C.3     1  UNL1        0.1636
     32 C          63.5778   84.4903   12.7467 C.3     1  UNL1        0.1231
     33 N          60.8421   87.6732    9.3290 N.pl3   1  UNL1       -0.3027
     34 C          60.7157   86.2803    8.7868 C.3     1  UNL1        0.1231
     35 C          59.8953   86.0256    7.5572 C.3     1  UNL1        0.1636
     36 O          59.2012   87.1639    6.8697 O.3     1  UNL1       -0.3501
     37 C          59.3274   88.5567    7.4118 C.3     1  UNL1        0.1636
     38 C          60.1479   88.8114    8.6415 C.3     1  UNL1        0.1231
@<TRIPOS>BOND
     1    11    12    1
     2    12    13   ar
     3    13    14   ar
     4    14    15   ar
     5    15    16   ar
     6    16    17   ar
     7    17     9    1
     8     9     3    1
     9     3     4   ar
    10     4     5   ar
    11     5     6   ar
    12     6     7   ar
    13     7     1    1
    14     1    21    1
    15    21    22   ar
    16    22    23   ar
    17    23    27    1
    18    27    28    1
    19    28    29    1
    20    29    30    1
    21    30    31    1
    22    31    32    1
    23    23    24   ar
    24    24    25   ar
    25    25    33    1
    26    33    34    1
    27    34    35    1
    28    35    36    1
    29    36    37    1
    30    37    38    1
    31    25    26   ar
    32     7     8   ar
    33    16    18    1
    34    18    19    1
    35    19    20    1
    36    17    12   ar
    37     8     3   ar
    38    20    15    1
    39    26    21   ar
    40    32    27    1
    41    38    33    1
    42     9    10    1
    43     1     2    1
@<TRIPOS>MOLECULE
*****
 38 43 0 0 0
SMALL
GASTEIGER

@<TRIPOS>ATOM
      1 N          64.1203   90.3563   15.1450 N.pl3   1  UNL1       -0.2824
      2 H          64.3633   91.0646   15.7841 H       1  UNL1        0.1551
      3 C          64.0667   86.3972   15.4127 C.ar    1  UNL1        0.1367
      4 C          63.2048   86.2067   16.6255 C.ar    1  UNL1        0.0552
      5 C          62.6481   87.3994   17.3448 C.ar    1  UNL1        0.1047
      6 N          62.9533   88.7827   16.8513 N.ar    1  UNL1       -0.2119
      7 C          63.8151   88.9731   15.6385 C.ar    1  UNL1        0.2218
      8 N          64.3718   87.7804   14.9192 N.ar    1  UNL1       -0.1985
      9 N          64.6233   85.2044   14.6935 N.pl3   1  UNL1       -0.2947
     10 H          65.5135   84.8575   14.9311 H       1  UNL1        0.1537
     11 CL         63.4344   86.8472   12.4826 Cl      1  UNL1       -0.0808
     12 C          63.2291   85.3614   12.5067 C.ar    1  UNL1        0.0742
     13 C          62.4295   84.6972   11.4255 C.ar    1  UNL1        0.0160
     14 C          62.2243   83.2115   11.4495 C.ar    1  UNL1        0.0411
     15 C          62.8187   82.3901   12.5549 C.ar    1  UNL1        0.1777
     16 C          63.6184   83.0543   13.6362 C.ar    1  UNL1        0.1905
     17 C          63.8236   84.5400   13.6122 C.ar    1  UNL1        0.0977
     18 O          64.0792   81.9928   14.5906 O.3     1  UNL1       -0.4333
     19 C          63.5644   80.6725   14.0991 C.3     1  UNL1        0.4294
     20 O          62.7853   80.9180   12.8410 O.3     1  UNL1       -0.4346
     21 C          64.0550   90.6606   13.6776 C.ar    1  UNL1        0.0529
     22 C          63.0422   89.9703   12.8128 C.ar    1  UNL1        0.0293
     23 C          62.9769   90.2745   11.3454 C.ar    1  UNL1        0.0505
     24 C          63.9245   91.2689   10.7428 C.ar    1  UNL1        0.0291
     25 C          64.9373   91.9591   11.6075 C.ar    1  UNL1        0.0505
     26 C          65.0026   91.6550   13.0749 C.ar    1  UNL1        0.0293
     27 N          61.9641   89.5842   10.4808 N.pl3   1  UNL1       -0.3027
     28 C          60.6718   90.2687   10.1469 C.3     1  UNL1        0.1231
     29 C          59.6590   89.5784    9.2822 C.3     1  UNL1        0.1636
     30 O          59.9385   88.2036    8.7514 O.3     1  UNL1       -0.3501
     31 C          61.2307   87.5191    9.0853 C.3     1  UNL1        0.1636
     32 C          62.2436   88.2094    9.9500 C.3     1  UNL1        0.1231
     33 N          65.8849   92.9535   11.0049 N.pl3   1  UNL1       -0.3027
     34 C          67.0087   92.4836   10.1294 C.3     1  UNL1        0.1231
     35 C          67.9562   93.4780    9.5267 C.3     1  UNL1        0.1636
     36 O          67.7800   94.9425    9.7995 O.3     1  UNL1       -0.3501
     37 C          66.6563   95.4125   10.6749 C.3     1  UNL1        0.1636
     38 C          65.7087   94.4180   11.2776 C.3     1  UNL1        0.1231
@<TRIPOS>BOND
     1    11    12    1
     2    12    13   ar
     3    13    14   ar
     4    14    15   ar
     5    15    16   ar
     6    16    17   ar
     7    17     9    1
     8     9     3    1
     9     3     4   ar
    10     4     5   ar
    11     5     6   ar
    12     6     7   ar
    13     7     1    1
    14     1    21    1
    15    21    22   ar
    16    22    23   ar
    17    23    27    1
    18    27    28    1
    19    28    29    1
    20    29    30    1
    21    30    31    1
    22    31    32    1
    23    23    24   ar
    24    24    25   ar
    25    25    33    1
    26    33    34    1
    27    34    35    1
    28    35    36    1
    29    36    37    1
    30    37    38    1
    31    25    26   ar
    32     7     8   ar
    33    16    18    1
    34    18    19    1
    35    19    20    1
    36    17    12   ar
    37     8     3   ar
    38    20    15    1
    39    26    21   ar
    40    32    27    1
    41    38    33    1
    42     9    10    1
    43     1     2    1
@<TRIPOS>MOLECULE
*****
 38 43 0 0 0
SMALL
GASTEIGER

@<TRIPOS>ATOM
      1 N          64.1812   90.3779   15.1408 N.pl3   1  UNL1       -0.2824
      2 H          64.4426   91.0809   15.7786 H       1  UNL1        0.1551
      3 C          64.0893   86.4197   15.4134 C.ar    1  UNL1        0.1367
      4 C          63.2215   86.2390   16.6235 C.ar    1  UNL1        0.0552
      5 C          62.6737   87.4379   17.3393 C.ar    1  UNL1        0.1047
      6 N          62.9935   88.8175   16.8451 N.ar    1  UNL1       -0.2119
      7 C          63.8613   88.9983   15.6350 C.ar    1  UNL1        0.2218
      8 N          64.4092   87.7994   14.9191 N.ar    1  UNL1       -0.1985
      9 N          64.6371   85.2208   14.6975 N.pl3   1  UNL1       -0.2947
     10 H          65.5254   84.8691   14.9350 H       1  UNL1        0.1537
     11 CL         63.4273   86.8676   12.5010 Cl      1  UNL1       -0.0808
     12 C          63.2265   85.3812   12.5215 C.ar    1  UNL1        0.0742
     13 C          62.4209   84.7182   11.4439 C.ar    1  UNL1        0.0160
     14 C          62.2201   83.2319   11.4645 C.ar    1  UNL1        0.0411
     15 C          62.8250   82.4085   12.5627 C.ar    1  UNL1        0.1777
     16 C          63.6307   83.0714   13.6404 C.ar    1  UNL1        0.1905
     17 C          63.8315   84.5578   13.6199 C.ar    1  UNL1        0.0977
     18 O          64.1016   82.0081   14.5878 O.3     1  UNL1       -0.4333
     19 C          63.5869   80.6879   14.0956 C.3     1  UNL1        0.4294
     20 O          62.7980   80.9353   12.8440 O.3     1  UNL1       -0.4346
     21 C          64.1029   90.6865   13.6750 C.ar    1  UNL1        0.0529
     22 C          65.0494   91.6779   13.0657 C.ar    1  UNL1        0.0293
     23 C          64.9712   91.9865   11.5999 C.ar    1  UNL1        0.0505
     24 C          63.9465   91.3037   10.7433 C.ar    1  UNL1        0.0291
     25 C          63.0000   90.3123   11.3527 C.ar    1  UNL1        0.0505
     26 C          63.0782   90.0036   12.8185 C.ar    1  UNL1        0.0293
     27 N          65.9177   92.9779   10.9906 N.pl3   1  UNL1       -0.3027
     28 C          67.0281   92.5052   10.0998 C.3     1  UNL1        0.1231
     29 C          67.9746   93.4966    9.4906 C.3     1  UNL1        0.1636
     30 O          67.8107   94.9609    9.7722 O.3     1  UNL1       -0.3501
     31 C          66.7003   95.4335   10.6629 C.3     1  UNL1        0.1636
     32 C          65.7538   94.4421   11.2722 C.3     1  UNL1        0.1231
     33 N          61.9753   89.6295   10.4961 N.pl3   1  UNL1       -0.3027
     34 C          62.2363   88.2489    9.9707 C.3     1  UNL1        0.1231
     35 C          61.2116   87.5661    9.1142 C.3     1  UNL1        0.1636
     36 O          59.9257   88.2639    8.7830 O.3     1  UNL1       -0.3501
     37 C          59.6645   89.6444    9.3083 C.3     1  UNL1        0.1636
     38 C          60.6894   90.3272   10.1649 C.3     1  UNL1        0.1231
@<TRIPOS>BOND
     1    11    12    1
     2    12    13   ar
     3    13    14   ar
     4    14    15   ar
     5    15    16   ar
     6    16    17   ar
     7    17     9    1
     8     9     3    1
     9     3     4   ar
    10     4     5   ar
    11     5     6   ar
    12     6     7   ar
    13     7     1    1
    14     1    21    1
    15    21    22   ar
    16    22    23   ar
    17    23    27    1
    18    27    28    1
    19    28    29    1
    20    29    30    1
    21    30    31    1
    22    31    32    1
    23    23    24   ar
    24    24    25   ar
    25    25    33    1
    26    33    34    1
    27    34    35    1
    28    35    36    1
    29    36    37    1
    30    37    38    1
    31    25    26   ar
    32     7     8   ar
    33    16    18    1
    34    18    19    1
    35    19    20    1
    36    17    12   ar
    37     8     3   ar
    38    20    15    1
    39    26    21   ar
    40    32    27    1
    41    38    33    1
    42     9    10    1
    43     1     2    1
@<TRIPOS>MOLECULE
*****
 38 43 0 0 0
SMALL
GASTEIGER

@<TRIPOS>ATOM
      1 N          64.1817   90.3343   15.3027 N.pl3   1  UNL1       -0.2824
      2 H          64.4750   91.0221   15.9432 H       1  UNL1        0.1551
      3 C          64.2199   86.3744   15.5621 C.ar    1  UNL1        0.1367
      4 C          63.3049   86.1580   16.7308 C.ar    1  UNL1        0.0552
      5 C          62.6822   87.3337   17.4236 C.ar    1  UNL1        0.1047
      6 N          62.9744   88.7258   16.9475 N.ar    1  UNL1       -0.2119
      7 C          63.8894   88.9422   15.7788 C.ar    1  UNL1        0.2218
      8 N          64.5122   87.7665   15.0860 N.ar    1  UNL1       -0.1985
      9 N          64.8426   85.1986   14.8694 N.pl3   1  UNL1       -0.2947
     10 H          65.7872   84.9745   15.0330 H       1  UNL1        0.1537
     11 CL         64.6715   82.2290   15.2597 Cl      1  UNL1       -0.0808
     12 C          63.9405   82.8794   14.1226 C.ar    1  UNL1        0.0742
     13 C          63.1240   82.0450   13.1808 C.ar    1  UNL1        0.0160
     14 C          62.3930   82.6953   12.0439 C.ar    1  UNL1        0.0411
     15 C          62.4785   84.1801   11.8487 C.ar    1  UNL1        0.1777
     16 C          63.2950   85.0146   12.7906 C.ar    1  UNL1        0.1905
     17 C          64.0260   84.3642   13.9275 C.ar    1  UNL1        0.0977
     18 O          63.1930   86.4448   12.3502 O.3     1  UNL1       -0.4333
     19 C          62.3133   86.4943   11.1362 C.3     1  UNL1        0.4294
     20 O          61.8718   85.0947   10.8263 O.3     1  UNL1       -0.4346
     21 C          64.0271   90.6785   13.8510 C.ar    1  UNL1        0.0529
     22 C          65.0019   91.6097   13.1930 C.ar    1  UNL1        0.0293
     23 C          64.8474   91.9540   11.7413 C.ar    1  UNL1        0.0505
     24 C          63.7181   91.3671   10.9474 C.ar    1  UNL1        0.0291
     25 C          62.7434   90.4359   11.6054 C.ar    1  UNL1        0.0505
     26 C          62.8979   90.0916   13.0571 C.ar    1  UNL1        0.0293
     27 N          65.8221   92.8851   11.0834 N.pl3   1  UNL1       -0.3027
     28 C          66.9108   92.3363   10.2096 C.3     1  UNL1        0.1231
     29 C          67.8855   93.2675    9.5517 C.3     1  UNL1        0.1636
     30 O          67.7716   94.7475    9.7678 O.3     1  UNL1       -0.3501
     31 C          66.6829   95.2963   10.6416 C.3     1  UNL1        0.1636
     32 C          65.7082   94.3651   11.2995 C.3     1  UNL1        0.1231
     33 N          61.6141   89.8490   10.8115 N.pl3   1  UNL1       -0.3027
     34 C          60.4057   89.3056   11.5148 C.3     1  UNL1        0.1231
     35 C          59.2764   88.7187   10.7209 C.3     1  UNL1        0.1636
     36 O          59.3555   88.6751    9.2236 O.3     1  UNL1       -0.3501
     37 C          60.5638   89.2184    8.5202 C.3     1  UNL1        0.1636
     38 C          61.6931   89.8054    9.3142 C.3     1  UNL1        0.1231
@<TRIPOS>BOND
     1    11    12    1
     2    12    13   ar
     3    13    14   ar
     4    14    15   ar
     5    15    16   ar
     6    16    17   ar
     7    17     9    1
     8     9     3    1
     9     3     4   ar
    10     4     5   ar
    11     5     6   ar
    12     6     7   ar
    13     7     1    1
    14     1    21    1
    15    21    22   ar
    16    22    23   ar
    17    23    27    1
    18    27    28    1
    19    28    29    1
    20    29    30    1
    21    30    31    1
    22    31    32    1
    23    23    24   ar
    24    24    25   ar
    25    25    33    1
    26    33    34    1
    27    34    35    1
    28    35    36    1
    29    36    37    1
    30    37    38    1
    31    25    26   ar
    32     7     8   ar
    33    16    18    1
    34    18    19    1
    35    19    20    1
    36    17    12   ar
    37     8     3   ar
    38    20    15    1
    39    26    21   ar
    40    32    27    1
    41    38    33    1
    42     9    10    1
    43     1     2    1
