@<TRIPOS>MOLECULE
*****
 34 38 0 0 0
SMALL
GASTEIGER

@<TRIPOS>ATOM
      1 C          62.6170   84.6352   11.0442 C.ar    1  UNL1        0.0004
      2 C          62.1397   85.1441    9.7164 C.ar    1  UNL1        0.0031
      3 C          62.0563   86.6205    9.4650 C.ar    1  UNL1        0.0370
      4 C          62.4501   87.5880   10.5415 C.ar    1  UNL1        0.1415
      5 C          62.9274   87.0791   11.8694 C.ar    1  UNL1        0.0699
      6 C          63.0108   85.6027   12.1207 C.ar    1  UNL1        0.0061
      7 C          63.3650   87.8649   13.0697 C.ar    1  UNL1        0.1704
      8 N          63.8243   87.2317   14.3496 N.ar    1  UNL1       -0.1273
      9 N          64.1767   88.3291   15.3095 N.ar    1  UNL1       -0.1127
     10 C          63.9351   89.6407   14.6229 C.ar    1  UNL1        0.2224
     11 N          63.4335   89.3539   13.2387 N.ar    1  UNL1       -0.2796
     12 C          63.0813   90.4246   12.2490 C.3     1  UNL1        0.1574
     13 C          62.5736   90.2710   10.8459 C.3     1  UNL1        0.2299
     14 O          62.2927   89.0085   10.0860 O.3     1  UNL1       -0.4733
     15 C          61.7940   80.5439   14.1401 C.3     1  UNL1        0.0521
     16 C          62.2889   81.1131   12.8436 C.ar    1  UNL1        0.0594
     17 C          62.2055   82.5896   12.5922 C.ar    1  UNL1        0.0147
     18 C          62.7004   83.1587   11.2956 C.ar    1  UNL1        0.0027
     19 C          63.2788   82.2515   10.2505 C.ar    1  UNL1        0.0207
     20 C          63.3623   80.7751   10.5018 C.ar    1  UNL1        0.0984
     21 N          62.8673   80.2059   11.7984 N.ar    1  UNL1       -0.2481
     22 N          64.1564   91.0004   15.2165 N.pl3   1  UNL1       -0.2825
     23 H          63.4349   91.4403   15.7216 H       1  UNL1        0.1551
     24 C          65.4769   91.6898   15.0404 C.ar    1  UNL1        0.0535
     25 C          66.0833   92.4514   16.1816 C.ar    1  UNL1        0.0149
     26 C          67.4039   93.1408   16.0055 C.ar    1  UNL1        0.0044
     27 C          68.1179   93.0686   14.6883 C.ar    1  UNL1        0.0373
     28 C          67.5115   92.3070   13.5472 C.ar    1  UNL1        0.1480
     29 C          66.1909   91.6176   13.7233 C.ar    1  UNL1        0.0518
     30 O          68.2254   92.2348   12.2301 O.3     1  UNL1       -0.4044
     31 C          67.4964   92.5690   10.9624 C.3     1  UNL1        0.5753
     32 F          66.7674   92.9031    9.6948 F       1  UNL1       -0.1328
     33 F          66.8179   93.7138   11.6544 F       1  UNL1       -0.1328
     34 F          68.1749   91.4241   10.2704 F       1  UNL1       -0.1328
@<TRIPOS>BOND
     1    15    16    1
     2    16    17   ar
     3    17    18   ar
     4    18     1    1
     5     1     2   ar
     6     2     3   ar
     7     3     4   ar
     8     4     5   ar
     9     5     6   ar
    10     5     7    1
    11     7     8   ar
    12     8     9   ar
    13     9    10   ar
    14    10    22    1
    15    22    24    1
    16    24    25   ar
    17    25    26   ar
    18    26    27   ar
    19    27    28   ar
    20    28    30    1
    21    30    31    1
    22    31    32    1
    23    31    33    1
    24    31    34    1
    25    28    29   ar
    26    10    11   ar
    27    11    12    1
    28    12    13    1
    29    13    14    1
    30    18    19   ar
    31    19    20   ar
    32    20    21   ar
    33    21    16   ar
    34     6     1   ar
    35    11     7   ar
    36    14     4    1
    37    29    24   ar
    38    22    23    1
@<TRIPOS>MOLECULE
*****
 34 38 0 0 0
SMALL
GASTEIGER

@<TRIPOS>ATOM
      1 C          65.8587   93.0868   12.2510 C.ar    1  UNL1        0.0004
      2 C          66.4489   92.9650   13.6246 C.ar    1  UNL1        0.0031
      3 C          66.1303   91.7709   14.4746 C.ar    1  UNL1        0.0370
      4 C          65.2215   90.6986   13.9510 C.ar    1  UNL1        0.1415
      5 C          64.6313   90.8203   12.5775 C.ar    1  UNL1        0.0699
      6 C          64.9498   92.0144   11.7275 C.ar    1  UNL1        0.0061
      7 C          63.7092   89.8732   11.8684 C.ar    1  UNL1        0.1704
      8 N          63.1848   90.1117   10.4835 N.ar    1  UNL1       -0.1273
      9 N          62.3012   88.9563   10.1169 N.ar    1  UNL1       -0.1127
     10 C          62.2796   88.0037   11.2754 C.ar    1  UNL1        0.2224
     11 N          63.1497   88.5703   12.3579 N.ar    1  UNL1       -0.2796
     12 C          63.3741   87.8929   13.6772 C.3     1  UNL1        0.1574
     13 C          64.2133   88.3509   14.8330 C.3     1  UNL1        0.2299
     14 O          65.0355   89.5996   14.9548 O.3     1  UNL1       -0.4733
     15 C          67.2489   95.1078    7.6703 C.3     1  UNL1        0.0521
     16 C          66.8723   95.2914    9.1105 C.ar    1  UNL1        0.0594
     17 C          66.5538   94.0973    9.9606 C.ar    1  UNL1        0.0147
     18 C          66.1772   94.2809   11.4009 C.ar    1  UNL1        0.0027
     19 C          66.1192   95.6587   11.9911 C.ar    1  UNL1        0.0207
     20 C          66.4377   96.8528   11.1411 C.ar    1  UNL1        0.0984
     21 N          66.8143   96.6692    9.7008 N.ar    1  UNL1       -0.2481
     22 N          61.5208   86.7113   11.3400 N.pl3   1  UNL1       -0.2825
     23 H          60.5467   86.7190   11.4819 H       1  UNL1        0.1551
     24 C          62.2463   85.4073   11.1882 C.ar    1  UNL1        0.0535
     25 C          62.8435   85.0308    9.8647 C.ar    1  UNL1        0.0149
     26 C          63.5690   83.7267    9.7130 C.ar    1  UNL1        0.0044
     27 C          63.6973   82.7991   10.8848 C.ar    1  UNL1        0.0373
     28 C          63.1001   83.1756   12.2083 C.ar    1  UNL1        0.1480
     29 C          62.3746   84.4797   12.3600 C.ar    1  UNL1        0.0518
     30 O          63.2284   82.2480   13.3801 O.3     1  UNL1       -0.4044
     31 C          62.0203   81.5291   13.9033 C.3     1  UNL1        0.5753
     32 F          60.8122   80.8102   14.4266 F       1  UNL1       -0.1328
     33 F          62.1870   80.4789   12.8454 F       1  UNL1       -0.1328
     34 F          61.8536   82.5793   14.9613 F       1  UNL1       -0.1328
@<TRIPOS>BOND
     1    15    16    1
     2    16    17   ar
     3    17    18   ar
     4    18     1    1
     5     1     2   ar
     6     2     3   ar
     7     3     4   ar
     8     4     5   ar
     9     5     6   ar
    10     5     7    1
    11     7     8   ar
    12     8     9   ar
    13     9    10   ar
    14    10    22    1
    15    22    24    1
    16    24    25   ar
    17    25    26   ar
    18    26    27   ar
    19    27    28   ar
    20    28    30    1
    21    30    31    1
    22    31    32    1
    23    31    33    1
    24    31    34    1
    25    28    29   ar
    26    10    11   ar
    27    11    12    1
    28    12    13    1
    29    13    14    1
    30    18    19   ar
    31    19    20   ar
    32    20    21   ar
    33    21    16   ar
    34     6     1   ar
    35    11     7   ar
    36    14     4    1
    37    29    24   ar
    38    22    23    1
@<TRIPOS>MOLECULE
*****
 34 38 0 0 0
SMALL
GASTEIGER

@<TRIPOS>ATOM
      1 C          59.6169   88.8589    7.1345 C.ar    1  UNL1        0.0004
      2 C          59.2771   87.4197    6.8834 C.ar    1  UNL1        0.0031
      3 C          59.7781   86.3571    7.8161 C.ar    1  UNL1        0.0370
      4 C          60.6188   86.7338    8.9999 C.ar    1  UNL1        0.1415
      5 C          60.9586   88.1730    9.2510 C.ar    1  UNL1        0.0699
      6 C          60.4576   89.2356    8.3183 C.ar    1  UNL1        0.0061
      7 C          61.7760   88.7608   10.3628 C.ar    1  UNL1        0.1704
      8 N          62.0450   90.2298   10.5034 N.ar    1  UNL1       -0.1273
      9 N          62.8908   90.4313   11.7257 N.ar    1  UNL1       -0.1127
     10 C          63.1446   89.0869   12.3405 C.ar    1  UNL1        0.2224
     11 N          62.4556   88.0544   11.4983 N.ar    1  UNL1       -0.2796
     12 C          62.4856   86.5859   11.8022 C.3     1  UNL1        0.1574
     13 C          61.8434   85.4609   11.0459 C.3     1  UNL1        0.2299
     14 O          61.0126   85.5268    9.7987 O.3     1  UNL1       -0.4733
     15 C          60.5565   92.5737    3.6247 C.3     1  UNL1        0.0521
     16 C          59.5858   91.7789    4.4469 C.ar    1  UNL1        0.0594
     17 C          60.0867   90.7163    5.3796 C.ar    1  UNL1        0.0147
     18 C          59.1159   89.9216    6.2018 C.ar    1  UNL1        0.0027
     19 C          57.6442   90.1895    6.0913 C.ar    1  UNL1        0.0207
     20 C          57.1432   91.2521    5.1586 C.ar    1  UNL1        0.0984
     21 N          58.1140   92.0468    4.3364 N.ar    1  UNL1       -0.2481
     22 N          63.9465   88.8215   13.5801 N.pl3   1  UNL1       -0.2825
     23 H          64.2456   87.9065   13.7864 H       1  UNL1        0.1551
     24 C          64.2929   89.9502   14.5053 C.ar    1  UNL1        0.0535
     25 C          63.4679   90.1925   15.7345 C.ar    1  UNL1        0.0149
     26 C          63.8144   91.3213   16.6597 C.ar    1  UNL1        0.0044
     27 C          64.9856   92.2076   16.3557 C.ar    1  UNL1        0.0373
     28 C          65.8106   91.9654   15.1266 C.ar    1  UNL1        0.1480
     29 C          65.4641   90.8366   14.2014 C.ar    1  UNL1        0.0518
     30 O          66.9818   92.8517   14.8226 O.3     1  UNL1       -0.4044
     31 C          68.1912   92.8270   15.7097 C.3     1  UNL1        0.5753
     32 F          69.4006   92.8024   16.5967 F       1  UNL1       -0.1328
     33 F          68.2594   91.3347   15.5752 F       1  UNL1       -0.1328
     34 F          68.1230   94.3194   15.8441 F       1  UNL1       -0.1328
@<TRIPOS>BOND
     1    15    16    1
     2    16    17   ar
     3    17    18   ar
     4    18     1    1
     5     1     2   ar
     6     2     3   ar
     7     3     4   ar
     8     4     5   ar
     9     5     6   ar
    10     5     7    1
    11     7     8   ar
    12     8     9   ar
    13     9    10   ar
    14    10    22    1
    15    22    24    1
    16    24    25   ar
    17    25    26   ar
    18    26    27   ar
    19    27    28   ar
    20    28    30    1
    21    30    31    1
    22    31    32    1
    23    31    33    1
    24    31    34    1
    25    28    29   ar
    26    10    11   ar
    27    11    12    1
    28    12    13    1
    29    13    14    1
    30    18    19   ar
    31    19    20   ar
    32    20    21   ar
    33    21    16   ar
    34     6     1   ar
    35    11     7   ar
    36    14     4    1
    37    29    24   ar
    38    22    23    1
@<TRIPOS>MOLECULE
*****
 34 38 0 0 0
SMALL
GASTEIGER

@<TRIPOS>ATOM
      1 C          59.4909   88.9677    7.1223 C.ar    1  UNL1        0.0004
      2 C          59.2654   87.5035    6.8877 C.ar    1  UNL1        0.0031
      3 C          59.8322   86.4950    7.8425 C.ar    1  UNL1        0.0370
      4 C          60.6244   86.9508    9.0319 C.ar    1  UNL1        0.1415
      5 C          60.8498   88.4150    9.2665 C.ar    1  UNL1        0.0699
      6 C          60.2831   89.4235    8.3117 C.ar    1  UNL1        0.0061
      7 C          61.6038   89.0785   10.3806 C.ar    1  UNL1        0.1704
      8 N          61.7580   90.5655   10.5034 N.ar    1  UNL1       -0.1273
      9 N          62.5681   90.8475   11.7340 N.ar    1  UNL1       -0.1127
     10 C          62.9145   89.5348   12.3717 C.ar    1  UNL1        0.2224
     11 N          62.3185   88.4415   11.5354 N.ar    1  UNL1       -0.2796
     12 C          62.4559   86.9837   11.8611 C.3     1  UNL1        0.1574
     13 C          61.9124   85.8029   11.1127 C.3     1  UNL1        0.2299
     14 O          61.0972   85.7883    9.8535 O.3     1  UNL1       -0.4733
     15 C          60.1960   92.6979    3.5742 C.3     1  UNL1        0.0521
     16 C          59.2766   91.8414    4.3934 C.ar    1  UNL1        0.0594
     17 C          59.8434   90.8328    5.3482 C.ar    1  UNL1        0.0147
     18 C          58.9241   89.9763    6.1675 C.ar    1  UNL1        0.0027
     19 C          57.4380   90.1283    6.0320 C.ar    1  UNL1        0.0207
     20 C          56.8712   91.1369    5.0772 C.ar    1  UNL1        0.0984
     21 N          57.7905   91.9934    4.2579 N.ar    1  UNL1       -0.2481
     22 N          63.7161   89.3483   13.6258 N.pl3   1  UNL1       -0.2825
     23 H          63.7259   88.4740   14.0782 H       1  UNL1        0.1551
     24 C          64.5029   90.4938   14.1904 C.ar    1  UNL1        0.0535
     25 C          64.3208   90.8940   15.6246 C.ar    1  UNL1        0.0149
     26 C          65.1076   92.0395   16.1892 C.ar    1  UNL1        0.0044
     27 C          66.0763   92.7848   15.3197 C.ar    1  UNL1        0.0373
     28 C          66.2585   92.3846   13.8856 C.ar    1  UNL1        0.1480
     29 C          65.4717   91.2390   13.3210 C.ar    1  UNL1        0.0518
     30 O          67.2272   93.1298   13.0161 O.3     1  UNL1       -0.4044
     31 C          66.8319   93.5313   11.6259 C.3     1  UNL1        0.5753
     32 F          66.4367   93.9327   10.2357 F       1  UNL1       -0.1328
     33 F          66.0580   94.6902   12.1806 F       1  UNL1       -0.1328
     34 F          67.6059   92.3722   11.0712 F       1  UNL1       -0.1328
@<TRIPOS>BOND
     1    15    16    1
     2    16    17   ar
     3    17    18   ar
     4    18     1    1
     5     1     2   ar
     6     2     3   ar
     7     3     4   ar
     8     4     5   ar
     9     5     6   ar
    10     5     7    1
    11     7     8   ar
    12     8     9   ar
    13     9    10   ar
    14    10    22    1
    15    22    24    1
    16    24    25   ar
    17    25    26   ar
    18    26    27   ar
    19    27    28   ar
    20    28    30    1
    21    30    31    1
    22    31    32    1
    23    31    33    1
    24    31    34    1
    25    28    29   ar
    26    10    11   ar
    27    11    12    1
    28    12    13    1
    29    13    14    1
    30    18    19   ar
    31    19    20   ar
    32    20    21   ar
    33    21    16   ar
    34     6     1   ar
    35    11     7   ar
    36    14     4    1
    37    29    24   ar
    38    22    23    1
@<TRIPOS>MOLECULE
*****
 34 38 0 0 0
SMALL
GASTEIGER

@<TRIPOS>ATOM
      1 C          59.6228   89.0288    7.3738 C.ar    1  UNL1        0.0004
      2 C          59.2807   87.5695    7.3157 C.ar    1  UNL1        0.0031
      3 C          59.8559   86.6234    8.3275 C.ar    1  UNL1        0.0370
      4 C          60.7733   87.1366    9.3976 C.ar    1  UNL1        0.1415
      5 C          61.1155   88.5959    9.4557 C.ar    1  UNL1        0.0699
      6 C          60.5402   89.5420    8.4439 C.ar    1  UNL1        0.0061
      7 C          62.0026   89.3103   10.4317 C.ar    1  UNL1        0.1704
      8 N          62.2662   90.7861   10.3820 N.ar    1  UNL1       -0.1273
      9 N          63.1931   91.1298   11.5101 N.ar    1  UNL1       -0.1127
     10 C          63.5024   89.8664   12.2571 C.ar    1  UNL1        0.2224
     11 N          62.7667   88.7418   11.5907 N.ar    1  UNL1       -0.2796
     12 C          62.8323   87.3186   12.0598 C.3     1  UNL1        0.1574
     13 C          62.1502   86.1123   11.4859 C.3     1  UNL1        0.2299
     14 O          61.2338   86.0313   10.3010 O.3     1  UNL1       -0.4733
     15 C          60.2952   92.6072    3.6666 C.3     1  UNL1        0.0521
     16 C          59.3837   91.7642    4.5083 C.ar    1  UNL1        0.0594
     17 C          59.9590   90.8180    5.5202 C.ar    1  UNL1        0.0147
     18 C          59.0475   89.9750    6.3619 C.ar    1  UNL1        0.0027
     19 C          57.5608   90.0781    6.1918 C.ar    1  UNL1        0.0207
     20 C          56.9855   91.0242    5.1800 C.ar    1  UNL1        0.0984
     21 N          57.8970   91.8673    4.3382 N.ar    1  UNL1       -0.2481
     22 N          64.3914   89.7482   13.4595 N.pl3   1  UNL1       -0.2825
     23 H          65.2376   90.2501   13.4973 H       1  UNL1        0.1551
     24 C          63.9914   88.8655   14.6044 C.ar    1  UNL1        0.0535
     25 C          63.2952   89.4525   15.7963 C.ar    1  UNL1        0.0149
     26 C          62.8952   88.5696   16.9412 C.ar    1  UNL1        0.0044
     27 C          63.1913   87.1000   16.8940 C.ar    1  UNL1        0.0373
     28 C          63.8874   86.5129   15.7020 C.ar    1  UNL1        0.1480
     29 C          64.2875   87.3958   14.5571 C.ar    1  UNL1        0.0518
     30 O          64.1835   85.0433   15.6548 O.3     1  UNL1       -0.4044
     31 C          64.2927   84.3423   14.3331 C.3     1  UNL1        0.5753
     32 F          64.4018   83.6413   13.0115 F       1  UNL1       -0.1328
     33 F          65.7876   84.4428   14.4033 F       1  UNL1       -0.1328
     34 F          62.7977   84.2418   14.2630 F       1  UNL1       -0.1328
@<TRIPOS>BOND
     1    15    16    1
     2    16    17   ar
     3    17    18   ar
     4    18     1    1
     5     1     2   ar
     6     2     3   ar
     7     3     4   ar
     8     4     5   ar
     9     5     6   ar
    10     5     7    1
    11     7     8   ar
    12     8     9   ar
    13     9    10   ar
    14    10    22    1
    15    22    24    1
    16    24    25   ar
    17    25    26   ar
    18    26    27   ar
    19    27    28   ar
    20    28    30    1
    21    30    31    1
    22    31    32    1
    23    31    33    1
    24    31    34    1
    25    28    29   ar
    26    10    11   ar
    27    11    12    1
    28    12    13    1
    29    13    14    1
    30    18    19   ar
    31    19    20   ar
    32    20    21   ar
    33    21    16   ar
    34     6     1   ar
    35    11     7   ar
    36    14     4    1
    37    29    24   ar
    38    22    23    1
@<TRIPOS>MOLECULE
*****
 34 38 0 0 0
SMALL
GASTEIGER

@<TRIPOS>ATOM
      1 C          62.1055   85.6453   10.3253 C.ar    1  UNL1        0.0004
      2 C          62.4902   84.3493   10.9751 C.ar    1  UNL1        0.0031
      3 C          63.1670   84.3534   12.3137 C.ar    1  UNL1        0.0370
      4 C          63.4591   85.6535   13.0025 C.ar    1  UNL1        0.1415
      5 C          63.0744   86.9495   12.3527 C.ar    1  UNL1        0.0699
      6 C          62.3976   86.9454   11.0141 C.ar    1  UNL1        0.0061
      7 C          63.2718   88.3462   12.8627 C.ar    1  UNL1        0.1704
      8 N          62.8385   89.5696   12.1106 N.ar    1  UNL1       -0.1273
      9 N          63.2017   90.7714   12.9316 N.ar    1  UNL1       -0.1127
     10 C          63.8595   90.2907   14.1910 C.ar    1  UNL1        0.2224
     11 N          63.9028   88.7919   14.1485 N.ar    1  UNL1       -0.2796
     12 C          64.4922   87.9509   15.2418 C.3     1  UNL1        0.1574
     13 C          64.5961   86.4566   15.3195 C.3     1  UNL1        0.2299
     14 O          64.1363   85.4341   14.3228 O.3     1  UNL1       -0.4733
     15 C          62.0115   84.2017    5.3346 C.3     1  UNL1        0.0521
     16 C          61.3817   84.9195    6.4913 C.ar    1  UNL1        0.0594
     17 C          62.0585   84.9235    7.8300 C.ar    1  UNL1        0.0147
     18 C          61.4287   85.6413    8.9867 C.ar    1  UNL1        0.0027
     19 C          60.1220   86.3551    8.8048 C.ar    1  UNL1        0.0207
     20 C          59.4452   86.3511    7.4662 C.ar    1  UNL1        0.0984
     21 N          60.0750   85.6333    6.3094 N.ar    1  UNL1       -0.2481
     22 N          64.3821   91.1569   15.2986 N.pl3   1  UNL1       -0.2825
     23 H          63.8326   91.3166   16.0997 H       1  UNL1        0.1551
     24 C          65.7420   91.7797   15.1856 C.ar    1  UNL1        0.0535
     25 C          66.3307   92.5125   16.3546 C.ar    1  UNL1        0.0149
     26 C          67.6906   93.1354   16.2416 C.ar    1  UNL1        0.0044
     27 C          68.4617   93.0254   14.9597 C.ar    1  UNL1        0.0373
     28 C          67.8730   92.2926   13.7907 C.ar    1  UNL1        0.1480
     29 C          66.5131   91.6697   13.9038 C.ar    1  UNL1        0.0518
     30 O          68.6441   92.1826   12.5089 O.3     1  UNL1       -0.4044
     31 C          67.9475   92.3806   11.1952 C.3     1  UNL1        0.5753
     32 F          67.2509   92.5787    9.8817 F       1  UNL1       -0.1328
     33 F          68.7519   91.2632   10.6002 F       1  UNL1       -0.1328
     34 F          67.1431   93.4981   11.7903 F       1  UNL1       -0.1328
@<TRIPOS>BOND
     1    15    16    1
     2    16    17   ar
     3    17    18   ar
     4    18     1    1
     5     1     2   ar
     6     2     3   ar
     7     3     4   ar
     8     4     5   ar
     9     5     6   ar
    10     5     7    1
    11     7     8   ar
    12     8     9   ar
    13     9    10   ar
    14    10    22    1
    15    22    24    1
    16    24    25   ar
    17    25    26   ar
    18    26    27   ar
    19    27    28   ar
    20    28    30    1
    21    30    31    1
    22    31    32    1
    23    31    33    1
    24    31    34    1
    25    28    29   ar
    26    10    11   ar
    27    11    12    1
    28    12    13    1
    29    13    14    1
    30    18    19   ar
    31    19    20   ar
    32    20    21   ar
    33    21    16   ar
    34     6     1   ar
    35    11     7   ar
    36    14     4    1
    37    29    24   ar
    38    22    23    1
@<TRIPOS>MOLECULE
*****
 34 38 0 0 0
SMALL
GASTEIGER

@<TRIPOS>ATOM
      1 C          62.5783   85.1878   11.3553 C.ar    1  UNL1        0.0004
      2 C          63.1870   86.1493   12.3325 C.ar    1  UNL1        0.0031
      3 C          62.8665   87.6120   12.2440 C.ar    1  UNL1        0.0370
      4 C          61.9374   88.1131   11.1783 C.ar    1  UNL1        0.1415
      5 C          61.3287   87.1515   10.2011 C.ar    1  UNL1        0.0699
      6 C          61.6492   85.6889   10.2896 C.ar    1  UNL1        0.0061
      7 C          60.3852   87.4384    9.0709 C.ar    1  UNL1        0.1704
      8 N          59.8437   86.3790    8.1574 N.ar    1  UNL1       -0.1273
      9 N          58.9411   87.0437    7.1605 N.ar    1  UNL1       -0.1127
     10 C          58.9248   88.5138    7.4580 C.ar    1  UNL1        0.2224
     11 N          59.8173   88.7577    8.6387 N.ar    1  UNL1       -0.2796
     12 C          60.0527   90.1160    9.2299 C.3     1  UNL1        0.1574
     13 C          60.9140   90.4905   10.3994 C.3     1  UNL1        0.2299
     14 O          61.7528   89.5991   11.2665 O.3     1  UNL1       -0.4733
     15 C          62.2720   80.6588   13.8842 C.3     1  UNL1        0.0521
     16 C          62.7456   81.4605   12.7082 C.ar    1  UNL1        0.0594
     17 C          62.4251   82.9233   12.6197 C.ar    1  UNL1        0.0147
     18 C          62.8988   83.7250   11.4438 C.ar    1  UNL1        0.0027
     19 C          63.6928   83.0641   10.3563 C.ar    1  UNL1        0.0207
     20 C          64.0133   81.6014   10.4448 C.ar    1  UNL1        0.0984
     21 N          63.5397   80.7996   11.6207 N.ar    1  UNL1       -0.2481
     22 N          58.1517   89.5568    6.7067 N.pl3   1  UNL1       -0.2825
     23 H          57.1822   89.6496    6.8505 H       1  UNL1        0.1551
     24 C          58.8556   90.4583    5.7363 C.ar    1  UNL1        0.0535
     25 C          58.0712   91.4498    4.9292 C.ar    1  UNL1        0.0149
     26 C          58.7753   92.3514    3.9587 C.ar    1  UNL1        0.0044
     27 C          60.2636   92.2613    3.7956 C.ar    1  UNL1        0.0373
     28 C          61.0480   91.2697    4.6027 C.ar    1  UNL1        0.1480
     29 C          60.3439   90.3682    5.5731 C.ar    1  UNL1        0.0518
     30 O          62.5363   91.1796    4.4395 O.3     1  UNL1       -0.4044
     31 C          63.1532   91.3417    3.0818 C.3     1  UNL1        0.5753
     32 F          63.7700   91.5038    1.7241 F       1  UNL1       -0.1328
     33 F          63.2116   89.8505    2.9304 F       1  UNL1       -0.1328
     34 F          63.0946   92.8328    3.2332 F       1  UNL1       -0.1328
@<TRIPOS>BOND
     1    15    16    1
     2    16    17   ar
     3    17    18   ar
     4    18     1    1
     5     1     2   ar
     6     2     3   ar
     7     3     4   ar
     8     4     5   ar
     9     5     6   ar
    10     5     7    1
    11     7     8   ar
    12     8     9   ar
    13     9    10   ar
    14    10    22    1
    15    22    24    1
    16    24    25   ar
    17    25    26   ar
    18    26    27   ar
    19    27    28   ar
    20    28    30    1
    21    30    31    1
    22    31    32    1
    23    31    33    1
    24    31    34    1
    25    28    29   ar
    26    10    11   ar
    27    11    12    1
    28    12    13    1
    29    13    14    1
    30    18    19   ar
    31    19    20   ar
    32    20    21   ar
    33    21    16   ar
    34     6     1   ar
    35    11     7   ar
    36    14     4    1
    37    29    24   ar
    38    22    23    1
@<TRIPOS>MOLECULE
*****
 34 38 0 0 0
SMALL
GASTEIGER

@<TRIPOS>ATOM
      1 C          63.3453   83.5144   13.6731 C.ar    1  UNL1        0.0004
      2 C          63.9385   83.6654   15.0425 C.ar    1  UNL1        0.0031
      3 C          64.2749   85.0295   15.5678 C.ar    1  UNL1        0.0370
      4 C          64.0181   86.2426   14.7237 C.ar    1  UNL1        0.1415
      5 C          63.4248   86.0916   13.3544 C.ar    1  UNL1        0.0699
      6 C          63.0884   84.7275   12.8291 C.ar    1  UNL1        0.0061
      7 C          63.0909   87.1607   12.3567 C.ar    1  UNL1        0.1704
      8 N          62.4959   86.8769   11.0093 N.ar    1  UNL1       -0.1273
      9 N          62.3050   88.1858   10.3018 N.ar    1  UNL1       -0.1127
     10 C          62.7820   89.2785   11.2120 C.ar    1  UNL1        0.2224
     11 N          63.2677   88.6450   12.4820 N.ar    1  UNL1       -0.2796
     12 C          63.8221   89.4267   13.6359 C.3     1  UNL1        0.1574
     13 C          64.3367   88.9172   14.9495 C.3     1  UNL1        0.2299
     14 O          64.4239   87.5001   15.4336 O.3     1  UNL1       -0.4733
     15 C          63.0937   80.1501    9.7211 C.3     1  UNL1        0.0521
     16 C          62.8831   80.4681   11.1717 C.ar    1  UNL1        0.0594
     17 C          63.2195   81.8323   11.6971 C.ar    1  UNL1        0.0147
     18 C          63.0089   82.1502   13.1478 C.ar    1  UNL1        0.0027
     19 C          62.4618   81.1041   14.0731 C.ar    1  UNL1        0.0207
     20 C          62.1254   79.7400   13.5478 C.ar    1  UNL1        0.0984
     21 N          62.3360   79.4219   12.0971 N.ar    1  UNL1       -0.2481
     22 N          62.7745   90.7469   10.9059 N.pl3   1  UNL1       -0.2825
     23 H          61.9826   91.1592   10.4910 H       1  UNL1        0.1551
     24 C          63.9735   91.5872   11.2320 C.ar    1  UNL1        0.0535
     25 C          64.8199   92.1469   10.1274 C.ar    1  UNL1        0.0149
     26 C          66.0190   92.9872   10.4536 C.ar    1  UNL1        0.0044
     27 C          66.3715   93.2677   11.8843 C.ar    1  UNL1        0.0373
     28 C          65.5250   92.7080   12.9889 C.ar    1  UNL1        0.1480
     29 C          64.3260   91.8677   12.6627 C.ar    1  UNL1        0.0518
     30 O          65.8775   92.9885   14.4196 O.3     1  UNL1       -0.4044
     31 C          67.1815   92.5028   14.9799 C.3     1  UNL1        0.5753
     32 F          68.4855   92.0173   15.5402 F       1  UNL1       -0.1328
     33 F          66.8243   91.0982   14.5938 F       1  UNL1       -0.1328
     34 F          67.5387   93.9076   15.3661 F       1  UNL1       -0.1328
@<TRIPOS>BOND
     1    15    16    1
     2    16    17   ar
     3    17    18   ar
     4    18     1    1
     5     1     2   ar
     6     2     3   ar
     7     3     4   ar
     8     4     5   ar
     9     5     6   ar
    10     5     7    1
    11     7     8   ar
    12     8     9   ar
    13     9    10   ar
    14    10    22    1
    15    22    24    1
    16    24    25   ar
    17    25    26   ar
    18    26    27   ar
    19    27    28   ar
    20    28    30    1
    21    30    31    1
    22    31    32    1
    23    31    33    1
    24    31    34    1
    25    28    29   ar
    26    10    11   ar
    27    11    12    1
    28    12    13    1
    29    13    14    1
    30    18    19   ar
    31    19    20   ar
    32    20    21   ar
    33    21    16   ar
    34     6     1   ar
    35    11     7   ar
    36    14     4    1
    37    29    24   ar
    38    22    23    1
@<TRIPOS>MOLECULE
*****
 34 38 0 0 0
SMALL
GASTEIGER

@<TRIPOS>ATOM
      1 C          64.3080   90.6972   12.4176 C.ar    1  UNL1        0.0004
      2 C          63.5364   90.7722   11.1335 C.ar    1  UNL1        0.0031
      3 C          62.7236   89.5970   10.6772 C.ar    1  UNL1        0.0370
      4 C          62.6824   88.3468   11.5051 C.ar    1  UNL1        0.1415
      5 C          63.4540   88.2718   12.7892 C.ar    1  UNL1        0.0699
      6 C          64.2668   89.4470   13.2454 C.ar    1  UNL1        0.0061
      7 C          63.5496   87.1303   13.7575 C.ar    1  UNL1        0.1704
      8 N          64.3623   87.1811   15.0173 N.ar    1  UNL1       -0.1273
      9 N          64.2122   85.8640   15.7192 N.ar    1  UNL1       -0.1127
     10 C          63.3067   84.9992   14.8933 C.ar    1  UNL1        0.2224
     11 N          62.8972   85.7817   13.6809 N.ar    1  UNL1       -0.2796
     12 C          61.9880   85.2417   12.6171 C.3     1  UNL1        0.1574
     13 C          61.5067   85.9168   11.3670 C.3     1  UNL1        0.2299
     14 O          61.8158   87.2987   10.8722 O.3     1  UNL1       -0.4733
     15 C          67.0898   93.0879   16.0981 C.3     1  UNL1        0.0521
     16 C          66.5117   93.0678   14.7142 C.ar    1  UNL1        0.0594
     17 C          65.6989   91.8925   14.2578 C.ar    1  UNL1        0.0147
     18 C          65.1208   91.8724   12.8739 C.ar    1  UNL1        0.0027
     19 C          65.3556   93.0275   11.9461 C.ar    1  UNL1        0.0207
     20 C          66.1684   94.2027   12.4024 C.ar    1  UNL1        0.0984
     21 N          66.7465   94.2229   13.7864 N.ar    1  UNL1       -0.2481
     22 N          62.8848   83.5978   15.2221 N.pl3   1  UNL1       -0.2825
     23 H          62.6320   83.3634   16.1443 H       1  UNL1        0.1551
     24 C          62.8480   82.5534   14.1460 C.ar    1  UNL1        0.0535
     25 C          62.1138   81.2657   14.3754 C.ar    1  UNL1        0.0149
     26 C          62.0771   80.2214   13.2991 C.ar    1  UNL1        0.0044
     27 C          62.7746   80.4649   11.9938 C.ar    1  UNL1        0.0373
     28 C          63.5089   81.7526   11.7644 C.ar    1  UNL1        0.1480
     29 C          63.5456   82.7969   12.8406 C.ar    1  UNL1        0.0518
     30 O          64.2064   81.9961   10.4590 O.3     1  UNL1       -0.4044
     31 C          64.0941   83.3322    9.7864 C.3     1  UNL1        0.5753
     32 F          63.9819   84.6683    9.1139 F       1  UNL1       -0.1328
     33 F          62.8538   82.8721    9.0795 F       1  UNL1       -0.1328
     34 F          65.3345   83.7923   10.4934 F       1  UNL1       -0.1328
@<TRIPOS>BOND
     1    15    16    1
     2    16    17   ar
     3    17    18   ar
     4    18     1    1
     5     1     2   ar
     6     2     3   ar
     7     3     4   ar
     8     4     5   ar
     9     5     6   ar
    10     5     7    1
    11     7     8   ar
    12     8     9   ar
    13     9    10   ar
    14    10    22    1
    15    22    24    1
    16    24    25   ar
    17    25    26   ar
    18    26    27   ar
    19    27    28   ar
    20    28    30    1
    21    30    31    1
    22    31    32    1
    23    31    33    1
    24    31    34    1
    25    28    29   ar
    26    10    11   ar
    27    11    12    1
    28    12    13    1
    29    13    14    1
    30    18    19   ar
    31    19    20   ar
    32    20    21   ar
    33    21    16   ar
    34     6     1   ar
    35    11     7   ar
    36    14     4    1
    37    29    24   ar
    38    22    23    1
