@<TRIPOS>MOLECULE
*****
 29 31 0 0 0
SMALL
GASTEIGER

@<TRIPOS>ATOM
      1 C          63.6168   87.3329   13.4256 C.ar    1  UNL1        0.0177
      2 C          62.7998   86.6215   12.3881 C.ar    1  UNL1        0.0013
      3 C          62.5157   85.1557   12.5326 C.ar    1  UNL1       -0.0016
      4 C          63.0486   84.4014   13.7145 C.ar    1  UNL1        0.0070
      5 C          63.8656   85.1129   14.7520 C.ar    1  UNL1       -0.0016
      6 C          64.1497   86.5786   14.6075 C.ar    1  UNL1        0.0013
      7 C          65.0017   90.9759   14.1745 C.ar    1  UNL1        0.1341
      8 C          64.4692   91.7301   12.9923 C.ar    1  UNL1        0.0345
      9 C          63.6526   91.0187   11.9546 C.ar    1  UNL1        0.0044
     10 C          63.3685   89.5529   12.0990 C.ar    1  UNL1        0.0192
     11 C          63.9009   88.7987   13.2811 C.ar    1  UNL1        0.0827
     12 N          64.7175   89.5102   14.3189 N.ar    1  UNL1       -0.2305
     13 C          68.0650   92.7516   15.9669 C.3     1  UNL1        0.0950
     14 C          67.2484   92.0401   14.9291 C.2     1  UNL1        0.2277
     15 O          67.8620   91.6814   13.6081 O.2     1  UNL1       -0.2747
     16 N          65.8183   91.6874   15.2123 N.am    1  UNL1       -0.2693
     17 H          65.4156   91.9228   16.0792 H       1  UNL1        0.1563
     18 C          62.7645   82.9357   13.8590 C.3     1  UNL1        0.1410
     19 O          62.1784   83.1832   15.2174 O.3     1  UNL1       -0.3771
     20 H          62.2253   84.1302   15.4221 H       1  UNL1        0.2112
     21 C          63.3506   82.6882   12.5006 C.ar    1  UNL1        0.0825
     22 C          64.7061   83.1274   12.0318 C.ar    1  UNL1        0.1157
     23 N          64.8773   82.6686   10.6139 N.ar    1  UNL1       -0.2228
     24 C          63.6276   81.9459   10.2064 C.ar    1  UNL1        0.1749
     25 N          62.6840   81.9580   11.3725 N.ar    1  UNL1       -0.3361
     26 H          61.7851   81.5571   11.3936 H       1  UNL1        0.1673
     27 C          62.4804   81.4700   14.0035 C.3     1  UNL1        0.0340
     28 C          61.0649   80.9888   14.1250 C.3     1  UNL1        0.0031
     29 C          63.6119   80.4854   14.0264 C.3     1  UNL1        0.0031
@<TRIPOS>BOND
     1    13    14    1
     2    14    15    2
     3    14    16   am
     4    16     7    1
     5     7     8   ar
     6     8     9   ar
     7     9    10   ar
     8    10    11   ar
     9    11     1    1
    10     1     2   ar
    11     2     3   ar
    12     3     4   ar
    13     4    18    1
    14    18    19    1
    15    18    21    1
    16    21    22   ar
    17    22    23   ar
    18    23    24   ar
    19    24    25   ar
    20    18    27    1
    21    27    28    1
    22    27    29    1
    23     4     5   ar
    24     5     6   ar
    25    11    12   ar
    26    12     7   ar
    27     6     1   ar
    28    25    21   ar
    29    16    17    1
    30    19    20    1
    31    25    26    1
@<TRIPOS>MOLECULE
*****
 29 31 0 0 0
SMALL
GASTEIGER

@<TRIPOS>ATOM
      1 C          61.9155   88.8894   10.4368 C.ar    1  UNL1        0.0177
      2 C          62.1233   90.3741   10.4864 C.ar    1  UNL1        0.0013
      3 C          62.9806   90.9760   11.5601 C.ar    1  UNL1       -0.0016
      4 C          63.6301   90.0932   12.5842 C.ar    1  UNL1        0.0070
      5 C          63.4223   88.6085   12.5346 C.ar    1  UNL1       -0.0016
      6 C          62.5650   88.0066   11.4609 C.ar    1  UNL1        0.0013
      7 C          59.2612   88.5530    7.5057 C.ar    1  UNL1        0.1341
      8 C          59.3437   87.0837    7.2158 C.ar    1  UNL1        0.0345
      9 C          60.2834   86.2162    7.9996 C.ar    1  UNL1        0.0044
     10 C          61.1407   86.8180    9.0733 C.ar    1  UNL1        0.0192
     11 C          61.0582   88.2874    9.3631 C.ar    1  UNL1        0.0827
     12 N          60.1185   89.1549    8.5793 N.ar    1  UNL1       -0.2305
     13 C          57.9218   91.2627    4.9340 C.3     1  UNL1        0.0950
     14 C          58.8615   90.3952    5.7178 C.2     1  UNL1        0.2277
     15 O          60.3415   90.5025    5.4975 O.2     1  UNL1       -0.2747
     16 N          58.3215   89.4205    6.7219 N.am    1  UNL1       -0.2693
     17 H          57.3502   89.3502    6.8665 H       1  UNL1        0.1563
     18 C          64.4873   90.6951   13.6579 C.3     1  UNL1        0.1410
     19 O          65.0405   91.6756   12.6666 O.3     1  UNL1       -0.3771
     20 H          64.6370   91.5200   11.7983 H       1  UNL1        0.2112
     21 C          63.9342   89.7146   14.6491 C.ar    1  UNL1        0.0825
     22 C          64.4819   88.3483   14.9375 C.ar    1  UNL1        0.1157
     23 N          63.6224   87.7175   15.9928 N.ar    1  UNL1       -0.2228
     24 C          62.5435   88.6941   16.3566 C.ar    1  UNL1        0.1749
     25 N          62.7362   89.9283   15.5262 N.ar    1  UNL1       -0.3361
     26 H          62.1749   90.7367   15.5522 H       1  UNL1        0.1673
     27 C          65.3446   91.2970   14.7315 C.3     1  UNL1        0.0340
     28 C          64.7089   91.8981   15.9499 C.3     1  UNL1        0.0031
     29 C          66.8377   91.2977   14.5868 C.3     1  UNL1        0.0031
@<TRIPOS>BOND
     1    13    14    1
     2    14    15    2
     3    14    16   am
     4    16     7    1
     5     7     8   ar
     6     8     9   ar
     7     9    10   ar
     8    10    11   ar
     9    11     1    1
    10     1     2   ar
    11     2     3   ar
    12     3     4   ar
    13     4    18    1
    14    18    19    1
    15    18    21    1
    16    21    22   ar
    17    22    23   ar
    18    23    24   ar
    19    24    25   ar
    20    18    27    1
    21    27    28    1
    22    27    29    1
    23     4     5   ar
    24     5     6   ar
    25    11    12   ar
    26    12     7   ar
    27     6     1   ar
    28    25    21   ar
    29    16    17    1
    30    19    20    1
    31    25    26    1
@<TRIPOS>MOLECULE
*****
 29 31 0 0 0
SMALL
GASTEIGER

@<TRIPOS>ATOM
      1 C          62.5349   89.5663   10.5490 C.ar    1  UNL1        0.0177
      2 C          63.0257   90.9135   10.1084 C.ar    1  UNL1        0.0013
      3 C          63.9060   91.7239   11.0132 C.ar    1  UNL1       -0.0016
      4 C          64.2953   91.1870   12.3586 C.ar    1  UNL1        0.0070
      5 C          63.8044   89.8397   12.7993 C.ar    1  UNL1       -0.0016
      6 C          62.9242   89.0295   11.8945 C.ar    1  UNL1        0.0013
      7 C          59.6919   88.6174    7.9477 C.ar    1  UNL1        0.1341
      8 C          59.8943   87.1354    7.8347 C.ar    1  UNL1        0.0345
      9 C          60.9769   86.4638    8.6264 C.ar    1  UNL1        0.0044
     10 C          61.8571   87.2740    9.5311 C.ar    1  UNL1        0.0192
     11 C          61.6547   88.7560    9.6442 C.ar    1  UNL1        0.0827
     12 N          60.5721   89.4276    8.8525 N.ar    1  UNL1       -0.2305
     13 C          57.8826   90.8396    5.2021 C.3     1  UNL1        0.0950
     14 C          58.9653   90.1679    5.9938 C.2     1  UNL1        0.2277
     15 O          60.4040   90.3752    5.6233 O.2     1  UNL1       -0.2747
     16 N          58.6092   89.2890    7.1560 N.am    1  UNL1       -0.2693
     17 H          57.6650   89.1530    7.3992 H       1  UNL1        0.1563
     18 C          65.1755   91.9973   13.2634 C.3     1  UNL1        0.1410
     19 O          64.3322   91.6007   14.4389 O.3     1  UNL1       -0.3771
     20 H          63.6138   91.0212   14.1406 H       1  UNL1        0.2112
     21 C          66.0187   92.3938   12.0880 C.ar    1  UNL1        0.0825
     22 C          67.3681   91.8368   11.7430 C.ar    1  UNL1        0.1157
     23 N          67.8440   92.5158   10.4929 N.ar    1  UNL1       -0.2228
     24 C          66.7887   93.4924   10.0654 C.ar    1  UNL1        0.1749
     25 N          65.6607   93.4170   11.0512 N.ar    1  UNL1       -0.3361
     26 H          64.8310   93.9462   11.0227 H       1  UNL1        0.1673
     27 C          66.0556   92.8075   14.1682 C.3     1  UNL1        0.0340
     28 C          66.5291   92.2293   15.4688 C.3     1  UNL1        0.0031
     29 C          66.4624   94.1961   13.7725 C.3     1  UNL1        0.0031
@<TRIPOS>BOND
     1    13    14    1
     2    14    15    2
     3    14    16   am
     4    16     7    1
     5     7     8   ar
     6     8     9   ar
     7     9    10   ar
     8    10    11   ar
     9    11     1    1
    10     1     2   ar
    11     2     3   ar
    12     3     4   ar
    13     4    18    1
    14    18    19    1
    15    18    21    1
    16    21    22   ar
    17    22    23   ar
    18    23    24   ar
    19    24    25   ar
    20    18    27    1
    21    27    28    1
    22    27    29    1
    23     4     5   ar
    24     5     6   ar
    25    11    12   ar
    26    12     7   ar
    27     6     1   ar
    28    25    21   ar
    29    16    17    1
    30    19    20    1
    31    25    26    1
@<TRIPOS>MOLECULE
*****
 29 31 0 0 0
SMALL
GASTEIGER

@<TRIPOS>ATOM
      1 C          63.3795   89.1697   12.2662 C.ar    1  UNL1        0.0177
      2 C          64.0695   88.9191   13.5743 C.ar    1  UNL1        0.0013
      3 C          64.9105   89.9940   14.1966 C.ar    1  UNL1       -0.0016
      4 C          65.0616   91.3195   13.5108 C.ar    1  UNL1        0.0070
      5 C          64.3716   91.5700   12.2027 C.ar    1  UNL1       -0.0016
      6 C          63.5306   90.4951   11.5804 C.ar    1  UNL1        0.0013
      7 C          61.9425   85.5811   11.3678 C.ar    1  UNL1        0.1341
      8 C          60.8565   85.9450   10.3993 C.ar    1  UNL1        0.0345
      9 C          60.6115   87.3837   10.0530 C.ar    1  UNL1        0.0044
     10 C          61.4525   88.4586   10.6753 C.ar    1  UNL1        0.0192
     11 C          62.5385   88.0947   11.6438 C.ar    1  UNL1        0.0827
     12 N          62.7835   86.6560   11.9901 N.ar    1  UNL1       -0.2305
     13 C          63.3671   81.8797   11.2249 C.3     1  UNL1        0.0950
     14 C          63.1221   83.3185   10.8787 C.2     1  UNL1        0.2277
     15 O          63.8117   83.9335    9.6970 O.2     1  UNL1       -0.2747
     16 N          62.1875   84.1423   11.7140 N.am    1  UNL1       -0.2693
     17 H          61.7349   83.7387   12.4896 H       1  UNL1        0.1563
     18 C          65.9026   92.3943   14.1331 C.3     1  UNL1        0.1410
     19 O          65.0022   92.4043   15.3327 O.3     1  UNL1       -0.3771
     20 H          64.2953   91.7511   15.2119 H       1  UNL1        0.2112
     21 C          66.8030   92.3843   12.9335 C.ar    1  UNL1        0.0825
     22 C          68.1050   91.6489   12.8144 C.ar    1  UNL1        0.1157
     23 N          68.6662   91.9181   11.4496 N.ar    1  UNL1       -0.2228
     24 C          67.7111   92.8198   10.7252 C.ar    1  UNL1        0.1749
     25 N          66.5596   93.1080   11.6423 N.ar    1  UNL1       -0.3361
     26 H          65.7809   93.6729   11.4334 H       1  UNL1        0.1673
     27 C          66.7436   93.4692   14.7554 C.3     1  UNL1        0.0340
     28 C          66.8772   94.8021   14.0804 C.3     1  UNL1        0.0031
     29 C          67.4511   93.2113   16.0528 C.3     1  UNL1        0.0031
@<TRIPOS>BOND
     1    13    14    1
     2    14    15    2
     3    14    16   am
     4    16     7    1
     5     7     8   ar
     6     8     9   ar
     7     9    10   ar
     8    10    11   ar
     9    11     1    1
    10     1     2   ar
    11     2     3   ar
    12     3     4   ar
    13     4    18    1
    14    18    19    1
    15    18    21    1
    16    21    22   ar
    17    22    23   ar
    18    23    24   ar
    19    24    25   ar
    20    18    27    1
    21    27    28    1
    22    27    29    1
    23     4     5   ar
    24     5     6   ar
    25    11    12   ar
    26    12     7   ar
    27     6     1   ar
    28    25    21   ar
    29    16    17    1
    30    19    20    1
    31    25    26    1
@<TRIPOS>MOLECULE
*****
 29 31 0 0 0
SMALL
GASTEIGER

@<TRIPOS>ATOM
      1 C          64.1538   91.6039   11.4327 C.ar    1  UNL1        0.0177
      2 C          63.8873   90.4658   12.3727 C.ar    1  UNL1        0.0013
      3 C          63.0148   89.3247   11.9405 C.ar    1  UNL1       -0.0016
      4 C          62.4088   89.3218   10.5684 C.ar    1  UNL1        0.0070
      5 C          62.6753   90.4600    9.6284 C.ar    1  UNL1       -0.0016
      6 C          63.5478   91.6010   10.0606 C.ar    1  UNL1        0.0013
      7 C          66.5449   93.8653   13.6505 C.ar    1  UNL1        0.1341
      8 C          66.7713   95.0271   12.7291 C.ar    1  UNL1        0.0345
      9 C          66.1251   95.0478   11.3756 C.ar    1  UNL1        0.0044
     10 C          65.2526   93.9068   10.9434 C.ar    1  UNL1        0.0192
     11 C          65.0263   92.7450   11.8648 C.ar    1  UNL1        0.0827
     12 N          65.6725   92.7243   13.2183 N.ar    1  UNL1       -0.2305
     13 C          69.1297   93.0903   16.5605 C.3     1  UNL1        0.0950
     14 C          68.4836   93.1110   15.2069 C.2     1  UNL1        0.2277
     15 O          69.1300   92.3981   14.0562 O.2     1  UNL1       -0.2747
     16 N          67.1911   93.8446   15.0040 N.am    1  UNL1       -0.2693
     17 H          66.7668   94.3125   15.7592 H       1  UNL1        0.1563
     18 C          61.5363   88.1808   10.1363 C.3     1  UNL1        0.1410
     19 O          62.6702   87.6186    9.3312 O.3     1  UNL1       -0.3771
     20 H          63.4466   88.1932    9.4211 H       1  UNL1        0.2112
     21 C          60.4024   88.7429   10.9414 C.ar    1  UNL1        0.0825
     22 C          59.7929   90.1034   10.7757 C.ar    1  UNL1        0.1157
     23 N          58.6926   90.2446   11.7855 N.ar    1  UNL1       -0.2228
     24 C          58.6222   88.9712   12.5753 C.ar    1  UNL1        0.1749
     25 N          59.6789   88.0431   12.0536 N.ar    1  UNL1       -0.3361
     26 H          59.8649   87.1343   12.3833 H       1  UNL1        0.1673
     27 C          60.6638   87.0397    9.7041 C.3     1  UNL1        0.0340
     28 C          61.0077   85.6372   10.1099 C.3     1  UNL1        0.0031
     29 C          59.4475   87.3012    8.8661 C.3     1  UNL1        0.0031
@<TRIPOS>BOND
     1    13    14    1
     2    14    15    2
     3    14    16   am
     4    16     7    1
     5     7     8   ar
     6     8     9   ar
     7     9    10   ar
     8    10    11   ar
     9    11     1    1
    10     1     2   ar
    11     2     3   ar
    12     3     4   ar
    13     4    18    1
    14    18    19    1
    15    18    21    1
    16    21    22   ar
    17    22    23   ar
    18    23    24   ar
    19    24    25   ar
    20    18    27    1
    21    27    28    1
    22    27    29    1
    23     4     5   ar
    24     5     6   ar
    25    11    12   ar
    26    12     7   ar
    27     6     1   ar
    28    25    21   ar
    29    16    17    1
    30    19    20    1
    31    25    26    1
@<TRIPOS>MOLECULE
*****
 29 31 0 0 0
SMALL
GASTEIGER

@<TRIPOS>ATOM
      1 C          63.7239   90.4619   11.7538 C.ar    1  UNL1        0.0177
      2 C          63.2809   89.1365   12.2987 C.ar    1  UNL1        0.0013
      3 C          62.3988   88.2444   11.4764 C.ar    1  UNL1       -0.0016
      4 C          61.9598   88.6778   10.1091 C.ar    1  UNL1        0.0070
      5 C          62.4029   90.0033    9.5642 C.ar    1  UNL1       -0.0016
      6 C          63.2850   90.8953   10.3865 C.ar    1  UNL1        0.0013
      7 C          65.9411   93.5660   12.8487 C.ar    1  UNL1        0.1341
      8 C          66.3701   93.1380   14.2207 C.ar    1  UNL1        0.0345
      9 C          65.9171   91.8180   14.7706 C.ar    1  UNL1        0.0044
     10 C          65.0351   90.9260   13.9483 C.ar    1  UNL1        0.0192
     11 C          64.6060   91.3539   12.5762 C.ar    1  UNL1        0.0827
     12 N          65.0590   92.6740   12.0264 N.ar    1  UNL1       -0.2305
     13 C          67.0455   96.3750   10.2719 C.3     1  UNL1        0.0950
     14 C          66.5925   95.0550   10.8217 C.2     1  UNL1        0.2277
     15 O          66.3379   93.9038    9.8942 O.2     1  UNL1       -0.2747
     16 N          66.3941   94.8861   12.2988 N.am    1  UNL1       -0.2693
     17 H          66.5612   95.6416   12.9075 H       1  UNL1        0.1563
     18 C          61.0778   87.7859    9.2867 C.3     1  UNL1        0.1410
     19 O          60.4034   88.9915    8.7023 O.3     1  UNL1       -0.3771
     20 H          60.7959   89.7952    9.0777 H       1  UNL1        0.2112
     21 C          61.7521   86.5802    9.8712 C.ar    1  UNL1        0.0825
     22 C          61.3814   85.8981   11.1547 C.ar    1  UNL1        0.1157
     23 N          62.3158   84.7412   11.3516 N.ar    1  UNL1       -0.2228
     24 C          63.2639   84.7083   10.1896 C.ar    1  UNL1        0.1749
     25 N          62.9156   85.8448    9.2748 N.ar    1  UNL1       -0.3361
     26 H          63.3706   86.0688    8.4310 H       1  UNL1        0.1673
     27 C          60.1957   86.8939    8.4644 C.3     1  UNL1        0.0340
     28 C          60.8053   85.8733    7.5496 C.3     1  UNL1        0.0031
     29 C          58.7041   87.0225    8.5567 C.3     1  UNL1        0.0031
@<TRIPOS>BOND
     1    13    14    1
     2    14    15    2
     3    14    16   am
     4    16     7    1
     5     7     8   ar
     6     8     9   ar
     7     9    10   ar
     8    10    11   ar
     9    11     1    1
    10     1     2   ar
    11     2     3   ar
    12     3     4   ar
    13     4    18    1
    14    18    19    1
    15    18    21    1
    16    21    22   ar
    17    22    23   ar
    18    23    24   ar
    19    24    25   ar
    20    18    27    1
    21    27    28    1
    22    27    29    1
    23     4     5   ar
    24     5     6   ar
    25    11    12   ar
    26    12     7   ar
    27     6     1   ar
    28    25    21   ar
    29    16    17    1
    30    19    20    1
    31    25    26    1
@<TRIPOS>MOLECULE
*****
 29 31 0 0 0
SMALL
GASTEIGER

@<TRIPOS>ATOM
      1 C          63.8152   87.4854   14.0970 C.ar    1  UNL1        0.0177
      2 C          64.1787   86.6136   15.2622 C.ar    1  UNL1        0.0013
      3 C          63.8767   85.1448   15.2231 C.ar    1  UNL1       -0.0016
      4 C          63.2111   84.5478   14.0187 C.ar    1  UNL1        0.0070
      5 C          62.8475   85.4197   12.8534 C.ar    1  UNL1       -0.0016
      6 C          63.1496   86.8884   12.8926 C.ar    1  UNL1        0.0013
      7 C          64.6280   91.1799   12.8971 C.ar    1  UNL1        0.1341
      8 C          64.7212   91.8916   14.2142 C.ar    1  UNL1        0.0345
      9 C          64.5124   91.1346   15.4922 C.ar    1  UNL1        0.0044
     10 C          64.2104   89.6659   15.4531 C.ar    1  UNL1        0.0192
     11 C          64.1172   88.9542   14.1361 C.ar    1  UNL1        0.0827
     12 N          64.3260   89.7112   12.8581 N.ar    1  UNL1       -0.2305
     13 C          66.3766   93.3215   10.0500 C.3     1  UNL1        0.0950
     14 C          66.1678   92.5645   11.3280 C.2     1  UNL1        0.2277
     15 O          67.2900   92.4351   12.3150 O.2     1  UNL1       -0.2747
     16 N          64.8369   91.9369   11.6191 N.am    1  UNL1       -0.2693
     17 H          64.1004   92.0219   10.9713 H       1  UNL1        0.1563
     18 C          62.9091   83.0791   13.9796 C.3     1  UNL1        0.1410
     19 O          62.3830   83.1499   15.3825 O.3     1  UNL1       -0.3771
     20 H          62.4537   84.0606   15.7087 H       1  UNL1        0.2112
     21 C          63.4352   83.0083   12.5767 C.ar    1  UNL1        0.0825
     22 C          64.8598   83.2204   12.1575 C.ar    1  UNL1        0.1157
     23 N          64.9341   83.0561   10.6683 N.ar    1  UNL1       -0.2228
     24 C          63.5555   82.7426   10.1671 C.ar    1  UNL1        0.1749
     25 N          62.6291   82.7130   11.3465 N.ar    1  UNL1       -0.3361
     26 H          61.6619   82.5317   11.3182 H       1  UNL1        0.1673
     27 C          62.6071   81.6104   13.9404 C.3     1  UNL1        0.0340
     28 C          61.1937   81.1311   14.0907 C.3     1  UNL1        0.0031
     29 C          63.7185   80.6209   13.7510 C.3     1  UNL1        0.0031
@<TRIPOS>BOND
     1    13    14    1
     2    14    15    2
     3    14    16   am
     4    16     7    1
     5     7     8   ar
     6     8     9   ar
     7     9    10   ar
     8    10    11   ar
     9    11     1    1
    10     1     2   ar
    11     2     3   ar
    12     3     4   ar
    13     4    18    1
    14    18    19    1
    15    18    21    1
    16    21    22   ar
    17    22    23   ar
    18    23    24   ar
    19    24    25   ar
    20    18    27    1
    21    27    28    1
    22    27    29    1
    23     4     5   ar
    24     5     6   ar
    25    11    12   ar
    26    12     7   ar
    27     6     1   ar
    28    25    21   ar
    29    16    17    1
    30    19    20    1
    31    25    26    1
@<TRIPOS>MOLECULE
*****
 29 31 0 0 0
SMALL
GASTEIGER

@<TRIPOS>ATOM
      1 C          63.1025   89.9690   12.0346 C.ar    1  UNL1        0.0177
      2 C          63.6945   91.1956   11.4062 C.ar    1  UNL1        0.0013
      3 C          64.8598   91.8825   12.0544 C.ar    1  UNL1       -0.0016
      4 C          65.4332   91.3428   13.3312 C.ar    1  UNL1        0.0070
      5 C          64.8411   90.1161   13.9596 C.ar    1  UNL1       -0.0016
      6 C          63.6759   89.4292   13.3114 C.ar    1  UNL1        0.0013
      7 C          60.9839   87.7504    9.5168 C.ar    1  UNL1        0.1341
      8 C          59.6067   87.9082   10.0899 C.ar    1  UNL1        0.0345
      9 C          59.3948   88.7529   11.3112 C.ar    1  UNL1        0.0044
     10 C          60.5600   89.4398   11.9594 C.ar    1  UNL1        0.0192
     11 C          61.9372   89.2820   11.3864 C.ar    1  UNL1        0.0827
     12 N          62.1491   88.4373   10.1651 N.ar    1  UNL1       -0.2305
     13 C          62.3019   84.8585    7.1399 C.3     1  UNL1        0.0950
     14 C          62.0900   85.7032    8.3612 C.2     1  UNL1        0.2277
     15 O          62.7724   85.3454    9.6483 O.2     1  UNL1       -0.2747
     16 N          61.1958   86.9057    8.2955 N.am    1  UNL1       -0.2693
     17 H          60.7480   87.1406    7.4508 H       1  UNL1        0.1563
     18 C          66.5985   92.0296   13.9794 C.3     1  UNL1        0.1410
     19 O          66.3675   91.2387   15.2328 O.3     1  UNL1       -0.3771
     20 H          65.6072   90.6494   15.1077 H       1  UNL1        0.2112
     21 C          66.8295   92.8206   12.7261 C.ar    1  UNL1        0.0825
     22 C          66.3784   94.2293   12.4768 C.ar    1  UNL1        0.1157
     23 N          66.8223   94.6212   11.0985 N.ar    1  UNL1       -0.2228
     24 C          67.5477   93.4545   10.4960 C.ar    1  UNL1        0.1749
     25 N          67.5521   92.3418   11.5018 N.ar    1  UNL1       -0.3361
     26 H          67.9580   91.4532   11.3799 H       1  UNL1        0.1673
     27 C          67.7637   92.7165   14.6277 C.3     1  UNL1        0.0340
     28 C          67.5301   93.7368   15.7021 C.3     1  UNL1        0.0031
     29 C          69.1628   92.3831   14.2014 C.3     1  UNL1        0.0031
@<TRIPOS>BOND
     1    13    14    1
     2    14    15    2
     3    14    16   am
     4    16     7    1
     5     7     8   ar
     6     8     9   ar
     7     9    10   ar
     8    10    11   ar
     9    11     1    1
    10     1     2   ar
    11     2     3   ar
    12     3     4   ar
    13     4    18    1
    14    18    19    1
    15    18    21    1
    16    21    22   ar
    17    22    23   ar
    18    23    24   ar
    19    24    25   ar
    20    18    27    1
    21    27    28    1
    22    27    29    1
    23     4     5   ar
    24     5     6   ar
    25    11    12   ar
    26    12     7   ar
    27     6     1   ar
    28    25    21   ar
    29    16    17    1
    30    19    20    1
    31    25    26    1
@<TRIPOS>MOLECULE
*****
 29 31 0 0 0
SMALL
GASTEIGER

@<TRIPOS>ATOM
      1 C          63.3182   88.9721   12.0931 C.ar    1  UNL1        0.0177
      2 C          63.4596   90.3608   11.5443 C.ar    1  UNL1        0.0013
      3 C          64.2538   91.3873   12.2964 C.ar    1  UNL1       -0.0016
      4 C          64.9065   91.0250   13.5974 C.ar    1  UNL1        0.0070
      5 C          64.7651   89.6361   14.1463 C.ar    1  UNL1       -0.0016
      6 C          63.9710   88.6097   13.3941 C.ar    1  UNL1        0.0013
      7 C          61.0577   87.2879    9.2996 C.ar    1  UNL1        0.1341
      8 C          60.9358   85.8927    9.8366 C.ar    1  UNL1        0.0345
      9 C          61.6081   85.5239   11.1258 C.ar    1  UNL1        0.0044
     10 C          62.4022   86.5503   11.8780 C.ar    1  UNL1        0.0192
     11 C          62.5241   87.9455   11.3409 C.ar    1  UNL1        0.0827
     12 N          61.8518   88.3144   10.0518 N.ar    1  UNL1       -0.2305
     13 C          59.0646   89.3698    6.5713 C.3     1  UNL1        0.0950
     14 C          59.7369   89.0010    7.8605 C.2     1  UNL1        0.2277
     15 O          59.7607   89.9765    8.9998 O.2     1  UNL1       -0.2747
     16 N          60.3854   87.6567    8.0104 N.am    1  UNL1       -0.2693
     17 H          60.3698   87.0165    7.2627 H       1  UNL1        0.1563
     18 C          65.7007   92.0514   14.3496 C.3     1  UNL1        0.1410
     19 O          64.6408   92.0942   15.4101 O.3     1  UNL1       -0.3771
     20 H          63.9281   91.4777   15.1801 H       1  UNL1        0.2112
     21 C          66.7605   92.0085   13.2890 C.ar    1  UNL1        0.0825
     22 C          66.6467   92.5762   11.9053 C.ar    1  UNL1        0.1157
     23 N          67.9362   92.3090   11.1870 N.ar    1  UNL1       -0.2228
     24 C          68.8470   91.5761   12.1269 C.ar    1  UNL1        0.1749
     25 N          68.1205   91.3905   13.4260 N.ar    1  UNL1       -0.3361
     26 H          68.4740   90.9417   14.2278 H       1  UNL1        0.1673
     27 C          66.4948   93.0778   15.1017 C.3     1  UNL1        0.0340
     28 C          66.8060   94.3998   14.4649 C.3     1  UNL1        0.0031
     29 C          66.9778   92.7823   16.4908 C.3     1  UNL1        0.0031
@<TRIPOS>BOND
     1    13    14    1
     2    14    15    2
     3    14    16   am
     4    16     7    1
     5     7     8   ar
     6     8     9   ar
     7     9    10   ar
     8    10    11   ar
     9    11     1    1
    10     1     2   ar
    11     2     3   ar
    12     3     4   ar
    13     4    18    1
    14    18    19    1
    15    18    21    1
    16    21    22   ar
    17    22    23   ar
    18    23    24   ar
    19    24    25   ar
    20    18    27    1
    21    27    28    1
    22    27    29    1
    23     4     5   ar
    24     5     6   ar
    25    11    12   ar
    26    12     7   ar
    27     6     1   ar
    28    25    21   ar
    29    16    17    1
    30    19    20    1
    31    25    26    1
