@<TRIPOS>MOLECULE
*****
 15 15 0 0 0
SMALL
GASTEIGER

@<TRIPOS>ATOM
      1 C          63.0857   84.7568    9.3845 C.ar    1  UNL1       -0.0115
      2 C          63.8180   83.5209    9.8160 C.ar    1  UNL1        0.0170
      3 C          63.8249   83.1193   11.2612 C.ar    1  UNL1        0.0986
      4 N          63.0995   83.9536   12.2749 N.ar    1  UNL1       -0.2417
      5 C          62.3672   85.1895   11.8435 C.ar    1  UNL1        0.1067
      6 C          62.3604   85.5911   10.3982 C.ar    1  UNL1        0.0569
      7 C          61.6280   86.8271    9.9668 C.1     1  UNL1       -0.0618
      8 C          60.8958   88.0631    9.5354 C.1     1  UNL1       -0.0689
      9 C          60.1635   89.2991    9.1039 C.3     1  UNL1        0.1432
     10 N          60.1163   90.4964   10.0062 N.3     1  UNL1       -0.3102
     11 H          59.5854   90.2680   10.8467 H       1  UNL1        0.1198
     12 H          59.6659   91.2714    9.5196 H       1  UNL1        0.1198
     13 C          63.0788   85.1584    7.9393 C.3     1  UNL1        0.0271
     14 C          62.0741   84.3099    5.6986 C.3     1  UNL1        0.0004
     15 C          61.8851   84.8565    7.0827 C.3     1  UNL1        0.0047
@<TRIPOS>BOND
     1    14    15    1
     2    15    13    1
     3    13     1    1
     4     1     2   ar
     5     2     3   ar
     6     3     4   ar
     7     4     5   ar
     8     5     6   ar
     9     6     7    1
    10     7     8    3
    11     8     9    1
    12     9    10    1
    13     6     1   ar
    14    10    11    1
    15    10    12    1
@<TRIPOS>MOLECULE
*****
 15 15 0 0 0
SMALL
GASTEIGER

@<TRIPOS>ATOM
      1 C          63.2236   84.4454   10.0552 C.ar    1  UNL1       -0.0115
      2 C          63.0805   84.7676    8.5972 C.ar    1  UNL1        0.0170
      3 C          62.0904   85.8025    8.1515 C.ar    1  UNL1        0.0986
      4 N          61.2434   86.5152    9.1636 N.ar    1  UNL1       -0.2417
      5 C          61.3864   86.1930   10.6216 C.ar    1  UNL1        0.1067
      6 C          62.3765   85.1581   11.0674 C.ar    1  UNL1        0.0569
      7 C          62.5196   84.8359   12.5254 C.1     1  UNL1       -0.0618
      8 C          62.6626   84.5137   13.9833 C.1     1  UNL1       -0.0689
      9 C          62.8057   84.1915   15.4414 C.3     1  UNL1        0.1432
     10 N          62.2242   85.1117   16.4734 N.3     1  UNL1       -0.3102
     11 H          62.7150   86.0055   16.4471 H       1  UNL1        0.1198
     12 H          62.3276   84.6941   17.3982 H       1  UNL1        0.1198
     13 C          64.2137   83.4105   10.5009 C.3     1  UNL1        0.0271
     14 C          63.0355   81.3875   11.6275 C.3     1  UNL1        0.0004
     15 C          63.8356   81.9590   10.4947 C.3     1  UNL1        0.0047
@<TRIPOS>BOND
     1    14    15    1
     2    15    13    1
     3    13     1    1
     4     1     2   ar
     5     2     3   ar
     6     3     4   ar
     7     4     5   ar
     8     5     6   ar
     9     6     7    1
    10     7     8    3
    11     8     9    1
    12     9    10    1
    13     6     1   ar
    14    10    11    1
    15    10    12    1
@<TRIPOS>MOLECULE
*****
 15 15 0 0 0
SMALL
GASTEIGER

@<TRIPOS>ATOM
      1 C          65.1814   91.1547   14.0429 C.ar    1  UNL1       -0.0115
      2 C          66.2636   91.7604   14.8865 C.ar    1  UNL1        0.0170
      3 C          67.0313   92.9468   14.3835 C.ar    1  UNL1        0.0986
      4 N          66.7168   93.5275   13.0367 N.ar    1  UNL1       -0.2417
      5 C          65.6345   92.9218   12.1930 C.ar    1  UNL1        0.1067
      6 C          64.8668   91.7354   12.6961 C.ar    1  UNL1        0.0569
      7 C          63.7846   91.1297   11.8523 C.1     1  UNL1       -0.0618
      8 C          62.7023   90.5241   11.0087 C.1     1  UNL1       -0.0689
      9 C          61.6200   89.9184   10.1649 C.3     1  UNL1        0.1432
     10 N          60.2622   90.5539   10.1170 N.3     1  UNL1       -0.3102
     11 H          59.8220   90.4850   11.0345 H       1  UNL1        0.1198
     12 H          59.6858   90.0730    9.4264 H       1  UNL1        0.1198
     13 C          64.4137   89.9683   14.5459 C.3     1  UNL1        0.0271
     14 C          63.1989   88.8900   16.5736 C.3     1  UNL1        0.0004
     15 C          63.5355   90.1008   15.7547 C.3     1  UNL1        0.0047
@<TRIPOS>BOND
     1    14    15    1
     2    15    13    1
     3    13     1    1
     4     1     2   ar
     5     2     3   ar
     6     3     4   ar
     7     4     5   ar
     8     5     6   ar
     9     6     7    1
    10     7     8    3
    11     8     9    1
    12     9    10    1
    13     6     1   ar
    14    10    11    1
    15    10    12    1
@<TRIPOS>MOLECULE
*****
 15 15 0 0 0
SMALL
GASTEIGER

@<TRIPOS>ATOM
      1 C          61.2833   86.6075    9.2322 C.ar    1  UNL1       -0.0115
      2 C          60.4738   86.0520    8.0983 C.ar    1  UNL1        0.0170
      3 C          59.4958   86.9293    7.3745 C.ar    1  UNL1        0.0986
      4 N          59.3274   88.3622    7.7847 N.ar    1  UNL1       -0.2417
      5 C          60.1370   88.9178    8.9186 C.ar    1  UNL1        0.1067
      6 C          61.1149   88.0405    9.6424 C.ar    1  UNL1        0.0569
      7 C          61.9245   88.5961   10.7764 C.1     1  UNL1       -0.0618
      8 C          62.7341   89.1517   11.9104 C.1     1  UNL1       -0.0689
      9 C          63.5436   89.7074   13.0444 C.3     1  UNL1        0.1432
     10 N          62.8632   90.1473   14.3067 N.3     1  UNL1       -0.3102
     11 H          62.2696   90.9530   14.1099 H       1  UNL1        0.1198
     12 H          63.5659   90.4039   15.0001 H       1  UNL1        0.1198
     13 C          62.2613   85.7302    9.9560 C.3     1  UNL1        0.0271
     14 C          63.7927   83.6332    9.8712 C.3     1  UNL1        0.0004
     15 C          63.1498   84.8009    9.1834 C.3     1  UNL1        0.0047
@<TRIPOS>BOND
     1    14    15    1
     2    15    13    1
     3    13     1    1
     4     1     2   ar
     5     2     3   ar
     6     3     4   ar
     7     4     5   ar
     8     5     6   ar
     9     6     7    1
    10     7     8    3
    11     8     9    1
    12     9    10    1
    13     6     1   ar
    14    10    11    1
    15    10    12    1
@<TRIPOS>MOLECULE
*****
 15 15 0 0 0
SMALL
GASTEIGER

@<TRIPOS>ATOM
      1 C          61.4878   88.0947   10.0356 C.ar    1  UNL1       -0.0115
      2 C          60.7242   89.1585    9.3040 C.ar    1  UNL1        0.0170
      3 C          59.7983   88.7822    8.1855 C.ar    1  UNL1        0.0986
      4 N          59.6359   87.3421    7.7985 N.ar    1  UNL1       -0.2417
      5 C          60.3995   86.2784    8.5301 C.ar    1  UNL1        0.1067
      6 C          61.3254   86.6546    9.6486 C.ar    1  UNL1        0.0569
      7 C          62.0890   85.5908   10.3802 C.1     1  UNL1       -0.0618
      8 C          62.8526   84.5270   11.1118 C.1     1  UNL1       -0.0689
      9 C          63.6162   83.4631   11.8434 C.3     1  UNL1        0.1432
     10 N          64.9345   82.9854   11.3106 N.3     1  UNL1       -0.3102
     11 H          64.7890   82.5094   10.4202 H       1  UNL1        0.1198
     12 H          65.3563   82.3386   11.9770 H       1  UNL1        0.1198
     13 C          62.4137   88.4710   11.1541 C.3     1  UNL1        0.0271
     14 C          63.5450   90.3140   12.5940 C.3     1  UNL1        0.0004
     15 C          62.7984   89.9063   11.3585 C.3     1  UNL1        0.0047
@<TRIPOS>BOND
     1    14    15    1
     2    15    13    1
     3    13     1    1
     4     1     2   ar
     5     2     3   ar
     6     3     4   ar
     7     4     5   ar
     8     5     6   ar
     9     6     7    1
    10     7     8    3
    11     8     9    1
    12     9    10    1
    13     6     1   ar
    14    10    11    1
    15    10    12    1
@<TRIPOS>MOLECULE
*****
 15 15 0 0 0
SMALL
GASTEIGER

@<TRIPOS>ATOM
      1 C          65.8269   91.9905   13.6610 C.ar    1  UNL1       -0.0115
      2 C          66.3480   92.8121   12.5193 C.ar    1  UNL1        0.0170
      3 C          65.6570   92.7704   11.1886 C.ar    1  UNL1        0.0986
      4 N          64.4449   91.9072   10.9996 N.ar    1  UNL1       -0.2417
      5 C          63.9239   91.0857   12.1413 C.ar    1  UNL1        0.1067
      6 C          64.6149   91.1274   13.4720 C.ar    1  UNL1        0.0569
      7 C          64.0938   90.3057   14.6138 C.1     1  UNL1       -0.0618
      8 C          63.5727   89.4842   15.7555 C.1     1  UNL1       -0.0689
      9 C          63.0516   88.6625   16.8972 C.3     1  UNL1        0.1432
     10 N          63.0047   87.1675   16.7853 N.3     1  UNL1       -0.3102
     11 H          62.3346   86.9014   16.0638 H       1  UNL1        0.1198
     12 H          62.7181   86.7685   17.6792 H       1  UNL1        0.1198
     13 C          66.5180   92.0322   14.9917 C.3     1  UNL1        0.0271
     14 C          68.7031   93.2191   15.7443 C.3     1  UNL1        0.0004
     15 C          68.0158   92.0760   15.0579 C.3     1  UNL1        0.0047
@<TRIPOS>BOND
     1    14    15    1
     2    15    13    1
     3    13     1    1
     4     1     2   ar
     5     2     3   ar
     6     3     4   ar
     7     4     5   ar
     8     5     6   ar
     9     6     7    1
    10     7     8    3
    11     8     9    1
    12     9    10    1
    13     6     1   ar
    14    10    11    1
    15    10    12    1
@<TRIPOS>MOLECULE
*****
 15 15 0 0 0
SMALL
GASTEIGER

@<TRIPOS>ATOM
      1 C          64.1484   83.6737   13.9009 C.ar    1  UNL1       -0.0115
      2 C          65.0319   84.8660   14.1193 C.ar    1  UNL1        0.0170
      3 C          64.6530   85.9047   15.1330 C.ar    1  UNL1        0.0986
      4 N          63.3905   85.7511   15.9283 N.ar    1  UNL1       -0.2417
      5 C          62.5069   84.5588   15.7098 C.ar    1  UNL1        0.1067
      6 C          62.8859   83.5201   14.6961 C.ar    1  UNL1        0.0569
      7 C          62.0022   82.3278   14.4777 C.1     1  UNL1       -0.0618
      8 C          61.1186   81.1355   14.2593 C.1     1  UNL1       -0.0689
      9 C          60.2350   79.9432   14.0409 C.3     1  UNL1        0.1432
     10 N          58.8378   79.9352   14.5865 N.3     1  UNL1       -0.3102
     11 H          58.8709   79.9386   15.6060 H       1  UNL1        0.1198
     12 H          58.3520   79.0979   14.2649 H       1  UNL1        0.1198
     13 C          64.5273   82.6350   12.8872 C.3     1  UNL1        0.0271
     14 C          63.4932   81.9604   10.6013 C.3     1  UNL1        0.0004
     15 C          64.3196   82.9023   11.4259 C.3     1  UNL1        0.0047
@<TRIPOS>BOND
     1    14    15    1
     2    15    13    1
     3    13     1    1
     4     1     2   ar
     5     2     3   ar
     6     3     4   ar
     7     4     5   ar
     8     5     6   ar
     9     6     7    1
    10     7     8    3
    11     8     9    1
    12     9    10    1
    13     6     1   ar
    14    10    11    1
    15    10    12    1
@<TRIPOS>MOLECULE
*****
 15 15 0 0 0
SMALL
GASTEIGER

@<TRIPOS>ATOM
      1 C          61.1985   87.3430    9.7011 C.ar    1  UNL1       -0.0115
      2 C          60.8175   88.7340    9.2890 C.ar    1  UNL1        0.0170
      3 C          61.3333   89.9125   10.0603 C.ar    1  UNL1        0.0986
      4 N          62.2302   89.7001   11.2437 N.ar    1  UNL1       -0.2417
      5 C          62.6112   88.3091   11.6557 C.ar    1  UNL1        0.1067
      6 C          62.0954   87.1305   10.8844 C.ar    1  UNL1        0.0569
      7 C          62.4765   85.7394   11.2966 C.1     1  UNL1       -0.0618
      8 C          62.8575   84.3485   11.7087 C.1     1  UNL1       -0.0689
      9 C          63.2386   82.9574   12.1209 C.3     1  UNL1        0.1432
     10 N          64.6851   82.5871   12.2632 N.3     1  UNL1       -0.3102
     11 H          65.1370   82.6242   11.3495 H       1  UNL1        0.1198
     12 H          64.7587   81.6424   12.6407 H       1  UNL1        0.1198
     13 C          60.6827   86.1644    8.9298 C.3     1  UNL1        0.0271
     14 C          62.7215   85.0784    7.7407 C.3     1  UNL1        0.0004
     15 C          61.3731   85.7319    7.6704 C.3     1  UNL1        0.0047
@<TRIPOS>BOND
     1    14    15    1
     2    15    13    1
     3    13     1    1
     4     1     2   ar
     5     2     3   ar
     6     3     4   ar
     7     4     5   ar
     8     5     6   ar
     9     6     7    1
    10     7     8    3
    11     8     9    1
    12     9    10    1
    13     6     1   ar
    14    10    11    1
    15    10    12    1
@<TRIPOS>MOLECULE
*****
 15 15 0 0 0
SMALL
GASTEIGER

@<TRIPOS>ATOM
      1 C          60.6848   88.6705    9.8644 C.ar    1  UNL1       -0.0115
      2 C          59.9006   87.8918    8.8501 C.ar    1  UNL1        0.0170
      3 C          60.2659   86.4679    8.5517 C.ar    1  UNL1        0.0986
      4 N          61.4153   85.8227    9.2674 N.ar    1  UNL1       -0.2417
      5 C          62.1995   86.6014   10.2816 C.ar    1  UNL1        0.1067
      6 C          61.8342   88.0253   10.5801 C.ar    1  UNL1        0.0569
      7 C          62.6185   88.8039   11.5944 C.1     1  UNL1       -0.0618
      8 C          63.4027   89.5825   12.6086 C.1     1  UNL1       -0.0689
      9 C          64.1870   90.3612   13.6229 C.3     1  UNL1        0.1432
     10 N          63.4723   91.1967   14.6432 N.3     1  UNL1       -0.3102
     11 H          62.9885   91.9636   14.1762 H       1  UNL1        0.1198
     12 H          64.1483   91.5751   15.3067 H       1  UNL1        0.1198
     13 C          60.3195   90.0944   10.1628 C.3     1  UNL1        0.0271
     14 C          59.0299   89.3230   12.2822 C.3     1  UNL1        0.0004
     15 C          59.5353   90.4244   11.3982 C.3     1  UNL1        0.0047
@<TRIPOS>BOND
     1    14    15    1
     2    15    13    1
     3    13     1    1
     4     1     2   ar
     5     2     3   ar
     6     3     4   ar
     7     4     5   ar
     8     5     6   ar
     9     6     7    1
    10     7     8    3
    11     8     9    1
    12     9    10    1
    13     6     1   ar
    14    10    11    1
    15    10    12    1
