@<TRIPOS>MOLECULE
*****
 36 39 0 0 0
SMALL
GASTEIGER

@<TRIPOS>ATOM
      1 C          62.1491   88.4704   10.4651 C.2     1  UNL1        0.2894
      2 O          63.2699   87.7870   11.1910 O.2     1  UNL1       -0.2688
      3 N          61.2845   87.6924    9.5179 N.am    1  UNL1       -0.1703
      4 N          60.1332   88.2369    8.7255 N.2     1  UNL1       -0.1783
      5 C          59.5565   87.1144    7.9147 C.2     1  UNL1        0.0938
      6 C          60.3515   85.8762    8.2060 C.3     1  UNL1        0.0799
      7 C          61.4194   86.2334    9.1969 C.3     1  UNL1        0.1809
      8 C          62.4426   85.2962    9.7666 C.2     1  UNL1        0.2432
      9 O          63.3807   84.5645    8.8530 O.2     1  UNL1       -0.2732
     10 N          62.5279   85.0907   11.2501 N.am    1  UNL1       -0.2990
     11 H          61.9122   85.5709   11.8498 H       1  UNL1        0.1498
     12 C          63.5511   84.1535   11.8199 C.3     1  UNL1        0.1179
     13 C          63.1400   82.7890   12.2881 C.ar    1  UNL1        0.0161
     14 C          63.0857   81.6475   11.3166 C.ar    1  UNL1        0.0103
     15 C          62.6746   80.2830   11.7849 C.ar    1  UNL1        0.0575
     16 CL         62.6203   79.1414   10.8133 Cl      1  UNL1       -0.0823
     17 C          62.3179   80.0601   13.2247 C.ar    1  UNL1        0.0129
     18 C          62.3723   81.2016   14.1962 C.ar    1  UNL1        0.0199
     19 C          62.7833   82.5661   13.7279 C.ar    1  UNL1        0.0839
     20 N          62.8376   83.7077   14.6995 N.ar    1  UNL1       -0.1889
     21 C          64.0788   84.2860   15.3118 C.ar    1  UNL1        0.2258
     22 N          63.6686   85.4071   16.2200 N.ar    1  UNL1       -0.1045
     23 N          62.1738   85.5216   16.1690 N.ar    1  UNL1       -0.0222
     24 N          61.6603   84.4713   15.2293 N.ar    1  UNL1       -0.0385
     25 C          61.8931   89.9317   10.6865 C.3     1  UNL1        0.2681
     26 C          62.9884   90.8147   11.2065 C.ar    1  UNL1        0.0265
     27 C          63.7360   91.7143   10.2674 C.ar    1  UNL1        0.0020
     28 C          64.8313   92.5974   10.7873 C.ar    1  UNL1        0.0294
     29 C          65.1792   92.5808   12.2463 C.ar    1  UNL1        0.1401
     30 F          66.2745   93.4639   12.7663 F       1  UNL1       -0.2042
     31 C          64.4316   91.6812   13.1854 C.ar    1  UNL1        0.0294
     32 C          63.3363   90.7982   12.6655 C.ar    1  UNL1        0.0020
     33 O          60.5416   90.5099   10.3878 O.3     1  UNL1       -0.4380
     34 C          59.3252   89.3539   12.3712 C.3     1  UNL1        0.1212
     35 C          59.4817   90.5266   11.4492 C.2     1  UNL1        0.3182
     36 O          58.5785   91.7160   11.5883 O.2     1  UNL1       -0.2501
@<TRIPOS>BOND
     1    34    35    1
     2    35    36    2
     3    35    33    1
     4    25    33    1
     5    25     1    1
     6     1     2    2
     7     1     3   am
     8     3     4    1
     9     4     5    2
    10     5     6    1
    11     6     7    1
    12     7     8    1
    13     8     9    2
    14     8    10   am
    15    10    12    1
    16    12    13    1
    17    13    14   ar
    18    14    15   ar
    19    15    16    1
    20    15    17   ar
    21    17    18   ar
    22    18    19   ar
    23    19    20    1
    24    20    21   ar
    25    21    22   ar
    26    22    23   ar
    27    23    24   ar
    28    25    26    1
    29    26    27   ar
    30    27    28   ar
    31    28    29   ar
    32    29    30    1
    33    29    31   ar
    34    31    32   ar
    35     7     3    1
    36    19    13   ar
    37    24    20   ar
    38    32    26   ar
    39    10    11    1
@<TRIPOS>MOLECULE
*****
 36 39 0 0 0
SMALL
GASTEIGER

@<TRIPOS>ATOM
      1 C          61.9295   88.7907   10.4433 C.2     1  UNL1        0.2894
      2 O          62.8385   87.9434   11.2835 O.2     1  UNL1       -0.2688
      3 N          61.1161   88.1624    9.3508 N.am    1  UNL1       -0.1703
      4 N          60.1689   88.8781    8.4340 N.2     1  UNL1       -0.1783
      5 C          59.5744   87.8662    7.4998 C.2     1  UNL1        0.0938
      6 C          60.1543   86.5251    7.8392 C.3     1  UNL1        0.0799
      7 C          61.1072   86.7082    8.9832 C.3     1  UNL1        0.1809
      8 C          61.9100   85.6269    9.6436 C.2     1  UNL1        0.2432
      9 O          62.9834   84.9143    8.8754 O.2     1  UNL1       -0.2732
     10 N          61.6395   85.2581   11.0722 N.am    1  UNL1       -0.2990
     11 H          60.9350   85.7258   11.5764 H       1  UNL1        0.1498
     12 C          62.4424   84.1769   11.7326 C.3     1  UNL1        0.1179
     13 C          63.1070   84.4358   13.0522 C.ar    1  UNL1        0.0161
     14 C          63.6399   85.8018   13.3683 C.ar    1  UNL1        0.0103
     15 C          64.3044   86.0608   14.6879 C.ar    1  UNL1        0.0575
     16 CL         64.8374   87.4268   15.0040 Cl      1  UNL1       -0.0823
     17 C          64.4360   84.9537   15.6914 C.ar    1  UNL1        0.0129
     18 C          63.9030   83.5877   15.3753 C.ar    1  UNL1        0.0199
     19 C          63.2385   83.3288   14.0558 C.ar    1  UNL1        0.0839
     20 N          62.7055   81.9627   13.7396 N.ar    1  UNL1       -0.1889
     21 C          63.3579   80.9457   12.8508 C.ar    1  UNL1        0.2258
     22 N          62.4821   79.7283   12.8187 N.ar    1  UNL1       -0.1045
     23 N          61.2884   79.9930   13.6877 N.ar    1  UNL1       -0.0222
     24 N          61.4265   81.3739   14.2569 N.ar    1  UNL1       -0.0385
     25 C          61.8341   90.2662   10.6957 C.3     1  UNL1        0.2681
     26 C          63.0396   91.0268   11.1626 C.ar    1  UNL1        0.0265
     27 C          63.8171   91.8680   10.1942 C.ar    1  UNL1        0.0020
     28 C          65.0227   92.6285   10.6611 C.ar    1  UNL1        0.0294
     29 C          65.4508   92.5480   12.0964 C.ar    1  UNL1        0.1401
     30 F          66.6564   93.3085   12.5634 F       1  UNL1       -0.2042
     31 C          64.6733   91.7068   13.0649 C.ar    1  UNL1        0.0294
     32 C          63.4677   90.9462   12.5980 C.ar    1  UNL1        0.0020
     33 O          60.5330   90.9811   10.4811 O.3     1  UNL1       -0.4380
     34 C          59.3330   89.5423   12.2810 C.3     1  UNL1        0.1212
     35 C          59.4025   90.7877   11.4479 C.2     1  UNL1        0.3182
     36 O          58.3417   91.8396   11.5814 O.2     1  UNL1       -0.2501
@<TRIPOS>BOND
     1    34    35    1
     2    35    36    2
     3    35    33    1
     4    25    33    1
     5    25     1    1
     6     1     2    2
     7     1     3   am
     8     3     4    1
     9     4     5    2
    10     5     6    1
    11     6     7    1
    12     7     8    1
    13     8     9    2
    14     8    10   am
    15    10    12    1
    16    12    13    1
    17    13    14   ar
    18    14    15   ar
    19    15    16    1
    20    15    17   ar
    21    17    18   ar
    22    18    19   ar
    23    19    20    1
    24    20    21   ar
    25    21    22   ar
    26    22    23   ar
    27    23    24   ar
    28    25    26    1
    29    26    27   ar
    30    27    28   ar
    31    28    29   ar
    32    29    30    1
    33    29    31   ar
    34    31    32   ar
    35     7     3    1
    36    19    13   ar
    37    24    20   ar
    38    32    26   ar
    39    10    11    1
@<TRIPOS>MOLECULE
*****
 36 39 0 0 0
SMALL
GASTEIGER

@<TRIPOS>ATOM
      1 C          63.1395   86.5420   12.6228 C.2     1  UNL1        0.2894
      2 O          63.6082   87.8033   13.2856 O.2     1  UNL1       -0.2688
      3 N          62.2819   86.6144   11.3942 N.am    1  UNL1       -0.1703
      4 N          61.7405   85.4449   10.6267 N.2     1  UNL1       -0.1783
      5 C          60.9391   85.9767    9.4756 C.2     1  UNL1        0.0938
      6 C          60.9853   87.4749    9.5318 C.3     1  UNL1        0.0799
      7 C          61.8151   87.8691   10.7175 C.3     1  UNL1        0.1809
      8 C          62.1240   89.2716   11.1505 C.2     1  UNL1        0.2432
      9 O          61.0505   90.1206   11.7643 O.2     1  UNL1       -0.2732
     10 N          63.5065   89.8251   10.9698 N.am    1  UNL1       -0.2990
     11 H          64.2110   89.2678   10.5670 H       1  UNL1        0.1498
     12 C          63.8153   91.2276   11.4028 C.3     1  UNL1        0.1179
     13 C          64.3802   91.4837   12.7686 C.ar    1  UNL1        0.0161
     14 C          63.7228   90.8846   13.9765 C.ar    1  UNL1        0.0103
     15 C          64.2876   91.1407   15.3422 C.ar    1  UNL1        0.0575
     16 CL         63.6302   90.5417   16.5502 Cl      1  UNL1       -0.0823
     17 C          65.5098   91.9958   15.5001 C.ar    1  UNL1        0.0129
     18 C          66.1672   92.5949   14.2923 C.ar    1  UNL1        0.0199
     19 C          65.6024   92.3388   12.9265 C.ar    1  UNL1        0.0839
     20 N          66.2598   92.9378   11.7186 N.ar    1  UNL1       -0.1889
     21 C          65.7693   94.1264   10.9462 C.ar    1  UNL1        0.2258
     22 N          66.7294   94.3766    9.8212 N.ar    1  UNL1       -0.1045
     23 N          67.8134   93.3425    9.8984 N.ar    1  UNL1       -0.0222
     24 N          67.5231   92.4534   11.0710 N.ar    1  UNL1       -0.0385
     25 C          63.5284   85.2083   13.1885 C.3     1  UNL1        0.2681
     26 C          63.4524   83.9793   12.3320 C.ar    1  UNL1        0.0265
     27 C          62.5490   82.8474   12.7229 C.ar    1  UNL1        0.0020
     28 C          62.4730   81.6183   11.8664 C.ar    1  UNL1        0.0294
     29 C          63.3002   81.5211   10.6190 C.ar    1  UNL1        0.1401
     30 F          63.2242   80.2921    9.7624 F       1  UNL1       -0.2042
     31 C          64.2036   82.6530   10.2280 C.ar    1  UNL1        0.0294
     32 C          64.2797   83.8821   11.0845 C.ar    1  UNL1        0.0020
     33 O          63.9933   85.1037   14.6108 O.3     1  UNL1       -0.4380
     34 C          63.4148   86.0237   16.9706 C.3     1  UNL1        0.1212
     35 C          63.0143   85.2747   15.7343 C.2     1  UNL1        0.3182
     36 O          61.6348   84.6965   15.6215 O.2     1  UNL1       -0.2501
@<TRIPOS>BOND
     1    34    35    1
     2    35    36    2
     3    35    33    1
     4    25    33    1
     5    25     1    1
     6     1     2    2
     7     1     3   am
     8     3     4    1
     9     4     5    2
    10     5     6    1
    11     6     7    1
    12     7     8    1
    13     8     9    2
    14     8    10   am
    15    10    12    1
    16    12    13    1
    17    13    14   ar
    18    14    15   ar
    19    15    16    1
    20    15    17   ar
    21    17    18   ar
    22    18    19   ar
    23    19    20    1
    24    20    21   ar
    25    21    22   ar
    26    22    23   ar
    27    23    24   ar
    28    25    26    1
    29    26    27   ar
    30    27    28   ar
    31    28    29   ar
    32    29    30    1
    33    29    31   ar
    34    31    32   ar
    35     7     3    1
    36    19    13   ar
    37    24    20   ar
    38    32    26   ar
    39    10    11    1
@<TRIPOS>MOLECULE
*****
 36 39 0 0 0
SMALL
GASTEIGER

@<TRIPOS>ATOM
      1 C          64.9446   91.9631   12.4621 C.2     1  UNL1        0.2894
      2 O          64.4161   91.5704   11.1143 O.2     1  UNL1       -0.2688
      3 N          64.3813   91.3330   13.7013 N.am    1  UNL1       -0.1703
      4 N          64.8071   91.6239   15.1099 N.2     1  UNL1       -0.1783
      5 C          63.9823   90.7721   16.0287 C.2     1  UNL1        0.0938
      6 C          63.0468   89.9548   15.1879 C.3     1  UNL1        0.0799
      7 C          63.2934   90.3015   13.7495 C.3     1  UNL1        0.1809
      8 C          62.5777   89.7190   12.5669 C.2     1  UNL1        0.2432
      9 O          61.7990   90.6119   11.6471 O.2     1  UNL1       -0.2732
     10 N          62.6409   88.2435   12.3042 N.am    1  UNL1       -0.2990
     11 H          63.1520   87.6574   12.9080 H       1  UNL1        0.1498
     12 C          61.9252   87.6610   11.1217 C.3     1  UNL1        0.1179
     13 C          62.4316   86.4009   10.4845 C.ar    1  UNL1        0.0161
     14 C          62.3806   86.2413    8.9940 C.ar    1  UNL1        0.0103
     15 C          62.8870   84.9813    8.3569 C.ar    1  UNL1        0.0575
     16 CL         62.8359   84.8216    6.8662 Cl      1  UNL1       -0.0823
     17 C          63.4445   83.8809    9.2104 C.ar    1  UNL1        0.0129
     18 C          63.4955   84.0406   10.7009 C.ar    1  UNL1        0.0199
     19 C          62.9891   85.3006   11.3380 C.ar    1  UNL1        0.0839
     20 N          63.0402   85.4603   12.8287 N.ar    1  UNL1       -0.1889
     21 C          62.2928   84.6308   13.8304 C.ar    1  UNL1        0.2258
     22 N          62.6383   85.1354   15.2001 N.ar    1  UNL1       -0.1045
     23 N          63.5992   86.2768   15.0449 N.ar    1  UNL1       -0.0222
     24 N          63.8475   86.4776   13.5793 N.ar    1  UNL1       -0.0385
     25 C          66.0365   92.9860   12.5705 C.3     1  UNL1        0.2681
     26 C          66.4270   93.7963   11.3702 C.ar    1  UNL1        0.0265
     27 C          67.1809   93.1530   10.2441 C.ar    1  UNL1        0.0020
     28 C          67.5714   93.9633    9.0437 C.ar    1  UNL1        0.0294
     29 C          67.2081   95.4167    8.9694 C.ar    1  UNL1        0.1401
     30 F          67.5986   96.2270    7.7690 F       1  UNL1       -0.2042
     31 C          66.4543   96.0599   10.0954 C.ar    1  UNL1        0.0294
     32 C          66.0637   95.2497   11.2958 C.ar    1  UNL1        0.0020
     33 O          66.7378   93.1984   13.8793 O.3     1  UNL1       -0.4380
     34 C          68.4681   92.3215   15.6076 C.3     1  UNL1        0.1212
     35 C          67.9932   92.4384   14.1896 C.2     1  UNL1        0.3182
     36 O          68.7737   91.7954   13.0818 O.2     1  UNL1       -0.2501
@<TRIPOS>BOND
     1    34    35    1
     2    35    36    2
     3    35    33    1
     4    25    33    1
     5    25     1    1
     6     1     2    2
     7     1     3   am
     8     3     4    1
     9     4     5    2
    10     5     6    1
    11     6     7    1
    12     7     8    1
    13     8     9    2
    14     8    10   am
    15    10    12    1
    16    12    13    1
    17    13    14   ar
    18    14    15   ar
    19    15    16    1
    20    15    17   ar
    21    17    18   ar
    22    18    19   ar
    23    19    20    1
    24    20    21   ar
    25    21    22   ar
    26    22    23   ar
    27    23    24   ar
    28    25    26    1
    29    26    27   ar
    30    27    28   ar
    31    28    29   ar
    32    29    30    1
    33    29    31   ar
    34    31    32   ar
    35     7     3    1
    36    19    13   ar
    37    24    20   ar
    38    32    26   ar
    39    10    11    1
@<TRIPOS>MOLECULE
*****
 36 39 0 0 0
SMALL
GASTEIGER

@<TRIPOS>ATOM
      1 C          63.3777   86.2277   13.2147 C.2     1  UNL1        0.2894
      2 O          63.5067   87.6316   12.7026 O.2     1  UNL1       -0.2688
      3 N          63.3305   85.9695   14.6916 N.am    1  UNL1       -0.1703
      4 N          63.2043   84.6268   15.3482 N.2     1  UNL1       -0.1783
      5 C          63.1971   84.8360   16.8336 C.2     1  UNL1        0.0938
      6 C          63.3189   86.3080   17.0949 C.3     1  UNL1        0.0799
      7 C          63.4013   87.0086   15.7710 C.3     1  UNL1        0.1809
      8 C          63.5317   88.4883   15.5632 C.2     1  UNL1        0.2432
      9 O          62.4660   89.4138   16.0708 O.2     1  UNL1       -0.2732
     10 N          64.7279   89.0427   14.8476 N.am    1  UNL1       -0.2990
     11 H          65.4274   88.4353   14.5144 H       1  UNL1        0.1498
     12 C          64.8583   90.5224   14.6398 C.3     1  UNL1        0.1179
     13 C          64.7521   91.0981   13.2586 C.ar    1  UNL1        0.0161
     14 C          63.6396   90.6666   12.3498 C.ar    1  UNL1        0.0103
     15 C          63.5335   91.2422   10.9687 C.ar    1  UNL1        0.0575
     16 CL         62.4210   90.8107   10.0597 Cl      1  UNL1       -0.0823
     17 C          64.5399   92.2493   10.4965 C.ar    1  UNL1        0.0129
     18 C          65.6524   92.6808   11.4054 C.ar    1  UNL1        0.0199
     19 C          65.7585   92.1052   12.7865 C.ar    1  UNL1        0.0839
     20 N          66.8711   92.5367   13.6954 N.ar    1  UNL1       -0.1889
     21 C          66.7519   93.5001   14.8389 C.ar    1  UNL1        0.2258
     22 N          68.1053   93.6393   15.4707 N.ar    1  UNL1       -0.1045
     23 N          69.0609   92.7619   14.7175 N.ar    1  UNL1       -0.0222
     24 N          68.2981   92.0805   13.6204 N.ar    1  UNL1       -0.0385
     25 C          63.2958   85.0820   12.2499 C.3     1  UNL1        0.2681
     26 C          62.6865   85.2851   10.8944 C.ar    1  UNL1        0.0265
     27 C          61.3765   86.0037   10.7611 C.ar    1  UNL1        0.0020
     28 C          60.7671   86.2068    9.4056 C.ar    1  UNL1        0.0294
     29 C          61.4677   85.6914    8.1835 C.ar    1  UNL1        0.1401
     30 F          60.8584   85.8945    6.8280 F       1  UNL1       -0.2042
     31 C          62.7776   84.9729    8.3168 C.ar    1  UNL1        0.0294
     32 C          63.3870   84.7698    9.6723 C.ar    1  UNL1        0.0020
     33 O          63.8232   83.7333   12.6408 O.3     1  UNL1       -0.4380
     34 C          63.0793   81.6204   11.3247 C.3     1  UNL1        0.1212
     35 C          62.9484   82.5212   12.5169 C.2     1  UNL1        0.3182
     36 O          61.9426   82.2099   13.5853 O.2     1  UNL1       -0.2501
@<TRIPOS>BOND
     1    34    35    1
     2    35    36    2
     3    35    33    1
     4    25    33    1
     5    25     1    1
     6     1     2    2
     7     1     3   am
     8     3     4    1
     9     4     5    2
    10     5     6    1
    11     6     7    1
    12     7     8    1
    13     8     9    2
    14     8    10   am
    15    10    12    1
    16    12    13    1
    17    13    14   ar
    18    14    15   ar
    19    15    16    1
    20    15    17   ar
    21    17    18   ar
    22    18    19   ar
    23    19    20    1
    24    20    21   ar
    25    21    22   ar
    26    22    23   ar
    27    23    24   ar
    28    25    26    1
    29    26    27   ar
    30    27    28   ar
    31    28    29   ar
    32    29    30    1
    33    29    31   ar
    34    31    32   ar
    35     7     3    1
    36    19    13   ar
    37    24    20   ar
    38    32    26   ar
    39    10    11    1
@<TRIPOS>MOLECULE
*****
 36 39 0 0 0
SMALL
GASTEIGER

@<TRIPOS>ATOM
      1 C          64.6748   91.7720   12.1388 C.2     1  UNL1        0.2894
      2 O          64.0742   91.2836   10.8540 O.2     1  UNL1       -0.2688
      3 N          64.1878   91.2277   13.4490 N.am    1  UNL1       -0.1703
      4 N          64.6902   91.6182   14.8073 N.2     1  UNL1       -0.1783
      5 C          63.9258   90.8292   15.8288 C.2     1  UNL1        0.0938
      6 C          62.9511   89.9511   15.1016 C.3     1  UNL1        0.0799
      7 C          63.1130   90.1973   13.6309 C.3     1  UNL1        0.1809
      8 C          62.3365   89.5304   12.5345 C.2     1  UNL1        0.2432
      9 O          61.3171   90.3089   11.7568 O.2     1  UNL1       -0.2732
     10 N          62.5793   88.0848   12.2158 N.am    1  UNL1       -0.2990
     11 H          63.2483   87.5738   12.7262 H       1  UNL1        0.1498
     12 C          61.8027   87.4178   11.1194 C.3     1  UNL1        0.1179
     13 C          62.3617   86.2058   10.4347 C.ar    1  UNL1        0.0161
     14 C          62.3399   86.1133    8.9378 C.ar    1  UNL1        0.0103
     15 C          62.8988   84.9013    8.2531 C.ar    1  UNL1        0.0575
     16 CL         62.8771   84.8087    6.7561 Cl      1  UNL1       -0.0823
     17 C          63.4795   83.7820    9.0654 C.ar    1  UNL1        0.0129
     18 C          63.5013   83.8746   10.5624 C.ar    1  UNL1        0.0199
     19 C          62.9423   85.0865   11.2470 C.ar    1  UNL1        0.0839
     20 N          62.9641   85.1791   12.7441 N.ar    1  UNL1       -0.1889
     21 C          62.1460   84.3517   13.6906 C.ar    1  UNL1        0.2258
     22 N          62.4840   84.7766   15.0888 N.ar    1  UNL1       -0.1045
     23 N          63.5112   85.8668   15.0065 N.ar    1  UNL1       -0.0222
     24 N          63.8078   86.1155   13.5573 N.ar    1  UNL1       -0.0385
     25 C          65.7625   92.8046   12.1133 C.3     1  UNL1        0.2681
     26 C          66.7714   92.8587   13.2219 C.ar    1  UNL1        0.0265
     27 C          67.8435   91.8135   13.3120 C.ar    1  UNL1        0.0020
     28 C          68.8525   91.8675   14.4206 C.ar    1  UNL1        0.0294
     29 C          68.7894   92.9668   15.4392 C.ar    1  UNL1        0.1401
     30 F          69.7983   93.0209   16.5478 F       1  UNL1       -0.2042
     31 C          67.7173   94.0121   15.3491 C.ar    1  UNL1        0.0294
     32 C          66.7084   93.9581   14.2405 C.ar    1  UNL1        0.0020
     33 O          65.8412   93.7831   10.9791 O.3     1  UNL1       -0.4380
     34 C          67.7122   92.4867    9.7266 C.3     1  UNL1        0.1212
     35 C          67.0317   93.7795   10.0667 C.2     1  UNL1        0.3182
     36 O          67.5418   95.0688    9.4943 O.2     1  UNL1       -0.2501
@<TRIPOS>BOND
     1    34    35    1
     2    35    36    2
     3    35    33    1
     4    25    33    1
     5    25     1    1
     6     1     2    2
     7     1     3   am
     8     3     4    1
     9     4     5    2
    10     5     6    1
    11     6     7    1
    12     7     8    1
    13     8     9    2
    14     8    10   am
    15    10    12    1
    16    12    13    1
    17    13    14   ar
    18    14    15   ar
    19    15    16    1
    20    15    17   ar
    21    17    18   ar
    22    18    19   ar
    23    19    20    1
    24    20    21   ar
    25    21    22   ar
    26    22    23   ar
    27    23    24   ar
    28    25    26    1
    29    26    27   ar
    30    27    28   ar
    31    28    29   ar
    32    29    30    1
    33    29    31   ar
    34    31    32   ar
    35     7     3    1
    36    19    13   ar
    37    24    20   ar
    38    32    26   ar
    39    10    11    1
@<TRIPOS>MOLECULE
*****
 36 39 0 0 0
SMALL
GASTEIGER

@<TRIPOS>ATOM
      1 C          62.2503   87.1412   11.0520 C.2     1  UNL1        0.2894
      2 O          63.0188   88.0700   11.9446 O.2     1  UNL1       -0.2688
      3 N          61.3312   87.6968   10.0049 N.am    1  UNL1       -0.1703
      4 N          60.5024   86.8962    9.0447 N.2     1  UNL1       -0.1783
      5 C          59.7384   87.8551    8.1804 C.2     1  UNL1        0.0938
      6 C          60.0951   89.2484    8.6065 C.3     1  UNL1        0.0799
      7 C          61.0795   89.1505    9.7341 C.3     1  UNL1        0.1809
      8 C          61.7028   90.3039   10.4629 C.2     1  UNL1        0.2432
      9 O          60.8730   91.1419   11.3900 O.2     1  UNL1       -0.2732
     10 N          63.1558   90.6193   10.2648 N.am    1  UNL1       -0.2990
     11 H          63.7004   90.0694    9.6563 H       1  UNL1        0.1498
     12 C          63.7791   91.7727   10.9936 C.3     1  UNL1        0.1179
     13 C          64.3645   91.5686   12.3595 C.ar    1  UNL1        0.0161
     14 C          63.6401   90.7272   13.3680 C.ar    1  UNL1        0.0103
     15 C          64.2255   90.5231   14.7338 C.ar    1  UNL1        0.0575
     16 CL         63.5010   89.6816   15.7423 Cl      1  UNL1       -0.0823
     17 C          65.5355   91.1605   15.0912 C.ar    1  UNL1        0.0129
     18 C          66.2600   92.0020   14.0827 C.ar    1  UNL1        0.0199
     19 C          65.6745   92.2060   12.7169 C.ar    1  UNL1        0.0839
     20 N          66.3990   93.0475   11.7084 N.ar    1  UNL1       -0.1889
     21 C          66.1885   94.5132   11.4687 C.ar    1  UNL1        0.2258
     22 N          67.1206   94.9425   10.3747 N.ar    1  UNL1       -0.1045
     23 N          67.9072   93.7421    9.9382 N.ar    1  UNL1       -0.0222
     24 N          67.4612   92.5710   10.7625 N.ar    1  UNL1       -0.0385
     25 C          62.4010   85.6568   11.2066 C.3     1  UNL1        0.2681
     26 C          62.9167   85.0854   12.4941 C.ar    1  UNL1        0.0265
     27 C          62.6828   83.6400   12.8199 C.ar    1  UNL1        0.0020
     28 C          63.1984   83.0685   14.1073 C.ar    1  UNL1        0.0294
     29 C          63.9479   83.9423   15.0689 C.ar    1  UNL1        0.1401
     30 F          64.4635   83.3709   16.3563 F       1  UNL1       -0.2042
     31 C          64.1818   85.3877   14.7430 C.ar    1  UNL1        0.0294
     32 C          63.6662   85.9592   13.4556 C.ar    1  UNL1        0.0020
     33 O          62.0361   84.7439   10.0737 O.3     1  UNL1       -0.4380
     34 C          63.0318   84.8549    7.6766 C.3     1  UNL1        0.1212
     35 C          63.0797   84.3275    9.0800 C.2     1  UNL1        0.3182
     36 O          64.1711   83.3838    9.4898 O.2     1  UNL1       -0.2501
@<TRIPOS>BOND
     1    34    35    1
     2    35    36    2
     3    35    33    1
     4    25    33    1
     5    25     1    1
     6     1     2    2
     7     1     3   am
     8     3     4    1
     9     4     5    2
    10     5     6    1
    11     6     7    1
    12     7     8    1
    13     8     9    2
    14     8    10   am
    15    10    12    1
    16    12    13    1
    17    13    14   ar
    18    14    15   ar
    19    15    16    1
    20    15    17   ar
    21    17    18   ar
    22    18    19   ar
    23    19    20    1
    24    20    21   ar
    25    21    22   ar
    26    22    23   ar
    27    23    24   ar
    28    25    26    1
    29    26    27   ar
    30    27    28   ar
    31    28    29   ar
    32    29    30    1
    33    29    31   ar
    34    31    32   ar
    35     7     3    1
    36    19    13   ar
    37    24    20   ar
    38    32    26   ar
    39    10    11    1
@<TRIPOS>MOLECULE
*****
 36 39 0 0 0
SMALL
GASTEIGER

@<TRIPOS>ATOM
      1 C          62.1519   88.0867   11.5580 C.2     1  UNL1        0.2894
      2 O          62.1739   86.7410   12.2203 O.2     1  UNL1       -0.2688
      3 N          62.9695   89.2122   12.1191 N.am    1  UNL1       -0.1703
      4 N          63.0476   90.6051   11.5681 N.2     1  UNL1       -0.1783
      5 C          63.9789   91.3962   12.4381 C.2     1  UNL1        0.0938
      6 C          64.4763   90.4922   13.5268 C.3     1  UNL1        0.0799
      7 C          63.8525   89.1423   13.3296 C.3     1  UNL1        0.1809
      8 C          64.0729   87.9348   14.1916 C.2     1  UNL1        0.2432
      9 O          63.7948   88.0034   15.6640 O.2     1  UNL1       -0.2732
     10 N          64.5714   86.6584   13.5812 N.am    1  UNL1       -0.2990
     11 H          64.7540   86.6133   12.6149 H       1  UNL1        0.1498
     12 C          64.7919   85.4508   14.4432 C.3     1  UNL1        0.1179
     13 C          63.9592   84.2202   14.2373 C.ar    1  UNL1        0.0161
     14 C          64.3236   83.2392   13.1628 C.ar    1  UNL1        0.0103
     15 C          63.4910   82.0087   12.9570 C.ar    1  UNL1        0.0575
     16 CL         63.8554   81.0275   11.8824 Cl      1  UNL1       -0.0823
     17 C          62.2938   81.7592   13.8256 C.ar    1  UNL1        0.0129
     18 C          61.9293   82.7402   14.9002 C.ar    1  UNL1        0.0199
     19 C          62.7620   83.9708   15.1060 C.ar    1  UNL1        0.0839
     20 N          62.3975   84.9519   16.1806 N.ar    1  UNL1       -0.1889
     21 C          63.2531   85.3354   17.3514 C.ar    1  UNL1        0.2258
     22 N          62.4979   86.3423   18.1674 N.ar    1  UNL1       -0.1045
     23 N          61.1754   86.5811   17.5008 N.ar    1  UNL1       -0.0222
     24 N          61.1135   85.7218   16.2729 N.ar    1  UNL1       -0.0385
     25 C          61.3123   88.3068   10.3346 C.3     1  UNL1        0.2681
     26 C          61.2685   87.2638    9.2574 C.ar    1  UNL1        0.0265
     27 C          62.4901   86.4485    8.9529 C.ar    1  UNL1        0.0020
     28 C          62.4464   85.4055    7.8758 C.ar    1  UNL1        0.0294
     29 C          61.1810   85.1779    7.1032 C.ar    1  UNL1        0.1401
     30 F          61.1372   84.1349    6.0260 F       1  UNL1       -0.2042
     31 C          59.9593   85.9932    7.4077 C.ar    1  UNL1        0.0294
     32 C          60.0031   87.0362    8.4848 C.ar    1  UNL1        0.0020
     33 O          60.5166   89.5699   10.1884 O.3     1  UNL1       -0.4380
     34 C          59.0846   88.9685   12.2712 C.3     1  UNL1        0.1212
     35 C          59.5490   89.9751   11.2607 C.2     1  UNL1        0.3182
     36 O          59.0459   91.3868   11.3223 O.2     1  UNL1       -0.2501
@<TRIPOS>BOND
     1    34    35    1
     2    35    36    2
     3    35    33    1
     4    25    33    1
     5    25     1    1
     6     1     2    2
     7     1     3   am
     8     3     4    1
     9     4     5    2
    10     5     6    1
    11     6     7    1
    12     7     8    1
    13     8     9    2
    14     8    10   am
    15    10    12    1
    16    12    13    1
    17    13    14   ar
    18    14    15   ar
    19    15    16    1
    20    15    17   ar
    21    17    18   ar
    22    18    19   ar
    23    19    20    1
    24    20    21   ar
    25    21    22   ar
    26    22    23   ar
    27    23    24   ar
    28    25    26    1
    29    26    27   ar
    30    27    28   ar
    31    28    29   ar
    32    29    30    1
    33    29    31   ar
    34    31    32   ar
    35     7     3    1
    36    19    13   ar
    37    24    20   ar
    38    32    26   ar
    39    10    11    1
@<TRIPOS>MOLECULE
*****
 36 39 0 0 0
SMALL
GASTEIGER

@<TRIPOS>ATOM
      1 C          64.9071   91.6312   13.0665 C.2     1  UNL1        0.2894
      2 O          64.5407   90.8826   11.8194 O.2     1  UNL1       -0.2688
      3 N          64.3812   91.1769   14.3958 N.am    1  UNL1       -0.1703
      4 N          64.6601   91.8215   15.7213 N.2     1  UNL1       -0.1783
      5 C          63.9353   91.0413   16.7777 C.2     1  UNL1        0.0938
      6 C          63.2085   89.9146   16.1051 C.3     1  UNL1        0.0799
      7 C          63.4841   89.9984   14.6330 C.3     1  UNL1        0.1809
      8 C          62.9555   89.0673   13.5826 C.2     1  UNL1        0.2432
      9 O          61.9029   89.5387   12.6235 O.2     1  UNL1       -0.2732
     10 N          63.4793   87.6646   13.4913 N.am    1  UNL1       -0.2990
     11 H          64.1702   87.3552   14.1208 H       1  UNL1        0.1498
     12 C          62.9507   86.7335   12.4409 C.3     1  UNL1        0.1179
     13 C          63.3105   85.2777   12.4793 C.ar    1  UNL1        0.0161
     14 C          63.6774   84.5622   11.2130 C.ar    1  UNL1        0.0103
     15 C          64.0372   83.1066   11.2514 C.ar    1  UNL1        0.0575
     16 CL         64.4041   82.3910    9.9851 Cl      1  UNL1       -0.0823
     17 C          64.0301   82.3664   12.5561 C.ar    1  UNL1        0.0129
     18 C          63.6632   83.0819   13.8223 C.ar    1  UNL1        0.0199
     19 C          63.3034   84.5375   13.7839 C.ar    1  UNL1        0.0839
     20 N          62.9364   85.2531   15.0502 N.ar    1  UNL1       -0.1889
     21 C          61.6235   85.1561   15.7690 C.ar    1  UNL1        0.2258
     22 N          61.6937   86.0344   16.9830 N.ar    1  UNL1       -0.1045
     23 N          63.0501   86.6742   17.0145 N.ar    1  UNL1       -0.0222
     24 N          63.8181   86.1913   15.8199 N.ar    1  UNL1       -0.0385
     25 C          65.7995   92.8341   12.9843 C.3     1  UNL1        0.2681
     26 C          66.2924   93.3126   11.6508 C.ar    1  UNL1        0.0265
     27 C          65.8371   94.6372   11.1142 C.ar    1  UNL1        0.0020
     28 C          66.3299   95.1157    9.7808 C.ar    1  UNL1        0.0294
     29 C          67.2780   94.2696    8.9839 C.ar    1  UNL1        0.1401
     30 F          67.7709   94.7480    7.6504 F       1  UNL1       -0.2042
     31 C          67.7334   92.9449    9.5205 C.ar    1  UNL1        0.0294
     32 C          67.2405   92.4664   10.8540 C.ar    1  UNL1        0.0020
     33 O          66.1990   93.5585   14.2355 O.3     1  UNL1       -0.4380
     34 C          68.3005   92.0485   14.4673 C.3     1  UNL1        0.1212
     35 C          67.5108   93.2502   14.8944 C.2     1  UNL1        0.3182
     36 O          68.0329   94.1436   15.9803 O.2     1  UNL1       -0.2501
@<TRIPOS>BOND
     1    34    35    1
     2    35    36    2
     3    35    33    1
     4    25    33    1
     5    25     1    1
     6     1     2    2
     7     1     3   am
     8     3     4    1
     9     4     5    2
    10     5     6    1
    11     6     7    1
    12     7     8    1
    13     8     9    2
    14     8    10   am
    15    10    12    1
    16    12    13    1
    17    13    14   ar
    18    14    15   ar
    19    15    16    1
    20    15    17   ar
    21    17    18   ar
    22    18    19   ar
    23    19    20    1
    24    20    21   ar
    25    21    22   ar
    26    22    23   ar
    27    23    24   ar
    28    25    26    1
    29    26    27   ar
    30    27    28   ar
    31    28    29   ar
    32    29    30    1
    33    29    31   ar
    34    31    32   ar
    35     7     3    1
    36    19    13   ar
    37    24    20   ar
    38    32    26   ar
    39    10    11    1
