@<TRIPOS>MOLECULE
*****
 27 29 0 0 0
SMALL
GASTEIGER

@<TRIPOS>ATOM
      1 N          64.3136   87.6503   14.6094 N.am    1  UNL1       -0.2987
      2 C          63.7709   89.0444   14.7185 C.2     1  UNL1        0.2460
      3 O          62.6451   89.3391   15.6650 O.2     1  UNL1       -0.2701
      4 H          65.0525   87.4570   13.9882 H       1  UNL1        0.1500
      5 C          64.3540   90.1439   13.8812 C.ar    1  UNL1        0.0534
      6 C          65.5721   90.8810   14.3536 C.ar    1  UNL1        0.0045
      7 C          66.1551   91.9805   13.5163 C.ar    1  UNL1        0.0001
      8 C          65.5201   92.3429   12.2065 C.ar    1  UNL1        0.0002
      9 C          64.3021   91.6059   11.7341 C.ar    1  UNL1        0.0001
     10 C          63.7190   90.5064   12.5715 C.ar    1  UNL1        0.0045
     11 C          66.1032   93.4424   11.3691 C.ar    1  UNL1        0.0054
     12 C          66.0366   94.8634   11.8451 C.ar    1  UNL1        0.0208
     13 C          66.6197   95.9629   11.0078 C.ar    1  UNL1        0.1013
     14 N          67.2693   95.6414    9.6945 N.ar    1  UNL1       -0.2165
     15 C          67.3359   94.2205    9.2186 C.ar    1  UNL1        0.2223
     16 F          67.9855   93.8990    7.9052 F       1  UNL1       -0.1832
     17 C          66.7528   93.1210   10.0559 C.ar    1  UNL1        0.0497
     18 C          63.7306   86.5509   15.4468 C.3     1  UNL1        0.0945
     19 C          63.3678   86.8107   16.8789 C.3     1  UNL1        0.0262
     20 C          64.0202   83.4323   13.0095 C.ar    1  UNL1        0.1385
     21 C          63.0697   82.4730   13.6624 C.ar    1  UNL1        0.0369
     22 C          62.3396   82.8729   14.9101 C.ar    1  UNL1        0.0028
     23 C          62.5598   84.2322   15.5049 C.ar    1  UNL1       -0.0025
     24 C          63.5103   85.1915   14.8520 C.ar    1  UNL1       -0.0015
     25 C          64.2404   84.7915   13.6043 C.ar    1  UNL1        0.0342
     26 C          64.0456   83.0626   10.4380 C.3     1  UNL1        0.2525
     27 O          64.7504   83.0323   11.7617 O.3     1  UNL1       -0.4714
@<TRIPOS>BOND
     1    26    27    1
     2    27    20    1
     3    20    21   ar
     4    21    22   ar
     5    22    23   ar
     6    23    24   ar
     7    24    18    1
     8    18    19    1
     9    18     1    1
    10     1     2   am
    11     2     3    2
    12     2     5    1
    13     5     6   ar
    14     6     7   ar
    15     7     8   ar
    16     8    11    1
    17    11    12   ar
    18    12    13   ar
    19    13    14   ar
    20    14    15   ar
    21    15    16    1
    22    15    17   ar
    23     8     9   ar
    24     9    10   ar
    25    24    25   ar
    26    25    20   ar
    27    10     5   ar
    28    17    11   ar
    29     1     4    1
@<TRIPOS>MOLECULE
*****
 27 29 0 0 0
SMALL
GASTEIGER

@<TRIPOS>ATOM
      1 N          63.9945   90.7677   14.1020 N.am    1  UNL1       -0.2987
      2 C          64.0392   89.2806   13.9111 C.2     1  UNL1        0.2460
      3 O          64.7626   88.4185   14.9028 O.2     1  UNL1       -0.2701
      4 H          63.5197   91.3335   13.4511 H       1  UNL1        0.1500
      5 C          63.3605   88.6555   12.7285 C.ar    1  UNL1        0.0534
      6 C          62.8387   89.5204   11.6195 C.ar    1  UNL1        0.0045
      7 C          62.1600   88.8953   10.4369 C.ar    1  UNL1        0.0001
      8 C          62.0030   87.4053   10.3632 C.ar    1  UNL1        0.0002
      9 C          62.5247   86.5405   11.4722 C.ar    1  UNL1        0.0001
     10 C          63.2035   87.1656   12.6548 C.ar    1  UNL1        0.0045
     11 C          61.3242   86.7803    9.1806 C.ar    1  UNL1        0.0054
     12 C          59.8955   87.1167    8.8715 C.ar    1  UNL1        0.0208
     13 C          59.2167   86.4916    7.6889 C.ar    1  UNL1        0.1013
     14 N          59.9668   85.5301    6.8154 N.ar    1  UNL1       -0.2165
     15 C          61.3955   85.1937    7.1245 C.ar    1  UNL1        0.2223
     16 F          62.1455   84.2322    6.2509 F       1  UNL1       -0.1832
     17 C          62.0742   85.8188    8.3071 C.ar    1  UNL1        0.0497
     18 C          64.6733   91.3928   15.2846 C.3     1  UNL1        0.0945
     19 C          63.9366   91.5352   16.5834 C.3     1  UNL1        0.0262
     20 C          68.2928   92.0765   13.8075 C.ar    1  UNL1        0.1385
     21 C          68.9197   92.8405   14.9358 C.ar    1  UNL1        0.0369
     22 C          68.1312   93.1219   16.1805 C.ar    1  UNL1        0.0028
     23 C          66.7158   92.6393   16.2967 C.ar    1  UNL1       -0.0025
     24 C          66.0888   91.8754   15.1684 C.ar    1  UNL1       -0.0015
     25 C          66.8773   91.5940   13.9237 C.ar    1  UNL1        0.0342
     26 C          68.4199   91.8852   11.2196 C.3     1  UNL1        0.2525
     27 O          69.0813   91.7952   12.5628 O.3     1  UNL1       -0.4714
@<TRIPOS>BOND
     1    26    27    1
     2    27    20    1
     3    20    21   ar
     4    21    22   ar
     5    22    23   ar
     6    23    24   ar
     7    24    18    1
     8    18    19    1
     9    18     1    1
    10     1     2   am
    11     2     3    2
    12     2     5    1
    13     5     6   ar
    14     6     7   ar
    15     7     8   ar
    16     8    11    1
    17    11    12   ar
    18    12    13   ar
    19    13    14   ar
    20    14    15   ar
    21    15    16    1
    22    15    17   ar
    23     8     9   ar
    24     9    10   ar
    25    24    25   ar
    26    25    20   ar
    27    10     5   ar
    28    17    11   ar
    29     1     4    1
@<TRIPOS>MOLECULE
*****
 27 29 0 0 0
SMALL
GASTEIGER

@<TRIPOS>ATOM
      1 N          65.8222   90.8460   13.6944 N.am    1  UNL1       -0.2987
      2 C          64.4679   90.3218   14.0697 C.2     1  UNL1        0.2460
      3 O          63.4424   91.2456   14.6571 O.2     1  UNL1       -0.2701
      4 H          66.4952   90.2396   13.3089 H       1  UNL1        0.1500
      5 C          64.1389   88.8738   13.8576 C.ar    1  UNL1        0.0534
      6 C          63.4117   88.4436   12.6181 C.ar    1  UNL1        0.0045
      7 C          63.0827   86.9956   12.4060 C.ar    1  UNL1        0.0001
      8 C          63.4809   85.9777   13.4334 C.ar    1  UNL1        0.0002
      9 C          64.2080   86.4079   14.6728 C.ar    1  UNL1        0.0001
     10 C          64.5370   87.8559   14.8849 C.ar    1  UNL1        0.0045
     11 C          63.1519   84.5297   13.2213 C.ar    1  UNL1        0.0054
     12 C          62.5741   83.7196   14.3439 C.ar    1  UNL1        0.0208
     13 C          62.2451   82.2716   14.1318 C.ar    1  UNL1        0.1013
     14 N          62.4939   81.6336   12.7971 N.ar    1  UNL1       -0.2165
     15 C          63.0717   82.4437   11.6747 C.ar    1  UNL1        0.2223
     16 F          63.3205   81.8057   10.3401 F       1  UNL1       -0.1832
     17 C          63.4007   83.8917   11.8868 C.ar    1  UNL1        0.0497
     18 C          66.1512   92.2940   13.9065 C.3     1  UNL1        0.0945
     19 C          66.2537   92.8438   15.2983 C.3     1  UNL1        0.0262
     20 C          67.0792   93.5143   10.2459 C.ar    1  UNL1        0.1385
     21 C          66.8309   94.9886   10.3672 C.ar    1  UNL1        0.0369
     22 C          66.3561   95.5647   11.6681 C.ar    1  UNL1        0.0028
     23 C          66.1295   94.6665   12.8479 C.ar    1  UNL1       -0.0025
     24 C          66.3778   93.1922   12.7267 C.ar    1  UNL1       -0.0015
     25 C          66.8526   92.6161   11.4257 C.ar    1  UNL1        0.0342
     26 C          68.8994   92.2799    8.8627 C.3     1  UNL1        0.2525
     27 O          67.5541   92.9381    8.9449 O.3     1  UNL1       -0.4714
@<TRIPOS>BOND
     1    26    27    1
     2    27    20    1
     3    20    21   ar
     4    21    22   ar
     5    22    23   ar
     6    23    24   ar
     7    24    18    1
     8    18    19    1
     9    18     1    1
    10     1     2   am
    11     2     3    2
    12     2     5    1
    13     5     6   ar
    14     6     7   ar
    15     7     8   ar
    16     8    11    1
    17    11    12   ar
    18    12    13   ar
    19    13    14   ar
    20    14    15   ar
    21    15    16    1
    22    15    17   ar
    23     8     9   ar
    24     9    10   ar
    25    24    25   ar
    26    25    20   ar
    27    10     5   ar
    28    17    11   ar
    29     1     4    1
@<TRIPOS>MOLECULE
*****
 27 29 0 0 0
SMALL
GASTEIGER

@<TRIPOS>ATOM
      1 N          64.4722   88.9615   14.6497 N.am    1  UNL1       -0.2987
      2 C          63.6910   88.4671   13.4686 C.2     1  UNL1        0.2460
      3 O          63.0923   89.4459   12.5023 O.2     1  UNL1       -0.2701
      4 H          64.8651   88.3191   15.2839 H       1  UNL1        0.1500
      5 C          63.5083   86.9939   13.2537 C.ar    1  UNL1        0.0534
      6 C          62.7735   86.4979   12.0436 C.ar    1  UNL1        0.0045
      7 C          62.5908   85.0246   11.8287 C.ar    1  UNL1        0.0001
      8 C          63.1429   84.0474   12.8239 C.ar    1  UNL1        0.0002
      9 C          63.8776   84.5434   14.0338 C.ar    1  UNL1        0.0001
     10 C          64.0603   86.0166   14.2487 C.ar    1  UNL1        0.0045
     11 C          62.9602   82.5741   12.6090 C.ar    1  UNL1        0.0054
     12 C          62.6275   81.6826   13.7686 C.ar    1  UNL1        0.0208
     13 C          62.4448   80.2094   13.5537 C.ar    1  UNL1        0.1013
     14 N          62.5948   79.6276   12.1792 N.ar    1  UNL1       -0.2165
     15 C          62.9274   80.5191   11.0197 C.ar    1  UNL1        0.2223
     16 F          63.0774   79.9374    9.6452 F       1  UNL1       -0.1832
     17 C          63.1101   81.9924   11.2346 C.ar    1  UNL1        0.0497
     18 C          64.6549   90.4348   14.8646 C.3     1  UNL1        0.0945
     19 C          63.9131   91.1295   15.9678 C.3     1  UNL1        0.0262
     20 C          65.9558   92.7501   11.9155 C.ar    1  UNL1        0.1385
     21 C          67.4285   92.7704   12.1995 C.ar    1  UNL1        0.0369
     22 C          67.9767   92.0121   13.3719 C.ar    1  UNL1        0.0028
     23 C          67.0522   91.2336   14.2603 C.ar    1  UNL1       -0.0025
     24 C          65.5795   91.2133   13.9762 C.ar    1  UNL1       -0.0015
     25 C          65.0313   91.9716   12.8038 C.ar    1  UNL1        0.0342
     26 C          65.8663   94.9114   10.4765 C.3     1  UNL1        0.2525
     27 O          65.4076   93.5084   10.7431 O.3     1  UNL1       -0.4714
@<TRIPOS>BOND
     1    26    27    1
     2    27    20    1
     3    20    21   ar
     4    21    22   ar
     5    22    23   ar
     6    23    24   ar
     7    24    18    1
     8    18    19    1
     9    18     1    1
    10     1     2   am
    11     2     3    2
    12     2     5    1
    13     5     6   ar
    14     6     7   ar
    15     7     8   ar
    16     8    11    1
    17    11    12   ar
    18    12    13   ar
    19    13    14   ar
    20    14    15   ar
    21    15    16    1
    22    15    17   ar
    23     8     9   ar
    24     9    10   ar
    25    24    25   ar
    26    25    20   ar
    27    10     5   ar
    28    17    11   ar
    29     1     4    1
@<TRIPOS>MOLECULE
*****
 27 29 0 0 0
SMALL
GASTEIGER

@<TRIPOS>ATOM
      1 N          64.1559   88.7732   14.6974 N.am    1  UNL1       -0.2987
      2 C          63.5421   88.2849   13.4189 C.2     1  UNL1        0.2460
      3 O          63.0774   89.2688   12.3863 O.2     1  UNL1       -0.2701
      4 H          64.4609   88.1275   15.3751 H       1  UNL1        0.1500
      5 C          63.3928   86.8128   13.1729 C.ar    1  UNL1        0.0534
      6 C          63.9306   85.8277   14.1682 C.ar    1  UNL1        0.0045
      7 C          63.7813   84.3556   13.9222 C.ar    1  UNL1        0.0001
      8 C          63.0942   83.8685   12.6809 C.ar    1  UNL1        0.0002
      9 C          62.5565   84.8535   11.6857 C.ar    1  UNL1        0.0001
     10 C          62.7057   86.3257   11.9317 C.ar    1  UNL1        0.0045
     11 C          62.9450   82.3964   12.4349 C.ar    1  UNL1        0.0054
     12 C          62.6591   81.4699   13.5795 C.ar    1  UNL1        0.0208
     13 C          62.5098   79.9977   13.3335 C.ar    1  UNL1        0.1013
     14 N          62.6464   79.4521   11.9429 N.ar    1  UNL1       -0.2165
     15 C          62.9323   80.3785   10.7984 C.ar    1  UNL1        0.2223
     16 F          63.0689   79.8329    9.4078 F       1  UNL1       -0.1832
     17 C          63.0815   81.8507   11.0444 C.ar    1  UNL1        0.0497
     18 C          64.3052   90.2454   14.9434 C.3     1  UNL1        0.0945
     19 C          63.5619   90.8963   16.0720 C.3     1  UNL1        0.0262
     20 C          67.4974   92.1859   13.6039 C.ar    1  UNL1        0.1385
     21 C          66.9829   92.7088   12.2956 C.ar    1  UNL1        0.0369
     22 C          65.5758   92.4106   11.8698 C.ar    1  UNL1        0.0028
     23 C          64.6833   91.5895   12.7524 C.ar    1  UNL1       -0.0025
     24 C          65.1978   91.0666   14.0607 C.ar    1  UNL1       -0.0015
     25 C          66.6048   91.3648   14.4865 C.ar    1  UNL1        0.0342
     26 C          69.1705   93.0618   15.3880 C.3     1  UNL1        0.2525
     27 O          68.9045   92.4841   14.0296 O.3     1  UNL1       -0.4714
@<TRIPOS>BOND
     1    26    27    1
     2    27    20    1
     3    20    21   ar
     4    21    22   ar
     5    22    23   ar
     6    23    24   ar
     7    24    18    1
     8    18    19    1
     9    18     1    1
    10     1     2   am
    11     2     3    2
    12     2     5    1
    13     5     6   ar
    14     6     7   ar
    15     7     8   ar
    16     8    11    1
    17    11    12   ar
    18    12    13   ar
    19    13    14   ar
    20    14    15   ar
    21    15    16    1
    22    15    17   ar
    23     8     9   ar
    24     9    10   ar
    25    24    25   ar
    26    25    20   ar
    27    10     5   ar
    28    17    11   ar
    29     1     4    1
@<TRIPOS>MOLECULE
*****
 27 29 0 0 0
SMALL
GASTEIGER

@<TRIPOS>ATOM
      1 N          64.1712   88.6640   14.5543 N.am    1  UNL1       -0.2987
      2 C          63.4178   88.2325   13.3311 C.2     1  UNL1        0.2460
      3 O          62.7664   89.2577   12.4509 O.2     1  UNL1       -0.2701
      4 H          64.5988   87.9911   15.1319 H       1  UNL1        0.1500
      5 C          63.3158   86.7758   12.9881 C.ar    1  UNL1        0.0534
      6 C          62.5475   86.3431   11.7746 C.ar    1  UNL1        0.0045
      7 C          62.4455   84.8864   11.4315 C.ar    1  UNL1        0.0001
      8 C          63.1118   83.8625   12.3020 C.ar    1  UNL1        0.0002
      9 C          63.8801   84.2952   13.5154 C.ar    1  UNL1        0.0001
     10 C          63.9821   85.7519   13.8584 C.ar    1  UNL1        0.0045
     11 C          63.0098   82.4058   11.9589 C.ar    1  UNL1        0.0054
     12 C          63.3301   81.9381   10.5701 C.ar    1  UNL1        0.0208
     13 C          63.2281   80.4814   10.2270 C.ar    1  UNL1        0.1013
     14 N          62.8058   79.4924   11.2728 N.ar    1  UNL1       -0.2165
     15 C          62.4855   79.9601   12.6616 C.ar    1  UNL1        0.2223
     16 F          62.0632   78.9711   13.7074 F       1  UNL1       -0.1832
     17 C          62.5875   81.4168   13.0046 C.ar    1  UNL1        0.0497
     18 C          64.2732   90.1207   14.8973 C.3     1  UNL1        0.0945
     19 C          63.5229   90.6681   16.0752 C.3     1  UNL1        0.0262
     20 C          67.3621   92.2961   13.6821 C.ar    1  UNL1        0.1385
     21 C          66.8302   92.8482   12.3929 C.ar    1  UNL1        0.0369
     22 C          65.4460   92.4913   11.9385 C.ar    1  UNL1        0.0028
     23 C          64.5937   91.5821   12.7732 C.ar    1  UNL1       -0.0025
     24 C          65.1255   91.0299   14.0625 C.ar    1  UNL1       -0.0015
     25 C          66.5098   91.3869   14.5169 C.ar    1  UNL1        0.0342
     26 C          69.0182   92.8984   15.5911 C.3     1  UNL1        0.2525
     27 O          68.7463   92.6531   14.1366 O.3     1  UNL1       -0.4714
@<TRIPOS>BOND
     1    26    27    1
     2    27    20    1
     3    20    21   ar
     4    21    22   ar
     5    22    23   ar
     6    23    24   ar
     7    24    18    1
     8    18    19    1
     9    18     1    1
    10     1     2   am
    11     2     3    2
    12     2     5    1
    13     5     6   ar
    14     6     7   ar
    15     7     8   ar
    16     8    11    1
    17    11    12   ar
    18    12    13   ar
    19    13    14   ar
    20    14    15   ar
    21    15    16    1
    22    15    17   ar
    23     8     9   ar
    24     9    10   ar
    25    24    25   ar
    26    25    20   ar
    27    10     5   ar
    28    17    11   ar
    29     1     4    1
@<TRIPOS>MOLECULE
*****
 27 29 0 0 0
SMALL
GASTEIGER

@<TRIPOS>ATOM
      1 N          61.2635   88.7797   11.8871 N.am    1  UNL1       -0.2987
      2 C          62.0690   89.9125   11.3235 C.2     1  UNL1        0.2460
      3 O          61.7014   90.5066    9.9961 O.2     1  UNL1       -0.2701
      4 H          61.5048   88.3898   12.7583 H       1  UNL1        0.1500
      5 C          63.2422   90.4513   12.0872 C.ar    1  UNL1        0.0534
      6 C          63.5690   89.9035   13.4449 C.ar    1  UNL1        0.0045
      7 C          64.7422   90.4423   14.2086 C.ar    1  UNL1        0.0001
      8 C          65.5886   91.5290   13.6147 C.ar    1  UNL1        0.0002
      9 C          65.2619   92.0768   12.2571 C.ar    1  UNL1        0.0001
     10 C          64.0887   91.5380   11.4934 C.ar    1  UNL1        0.0045
     11 C          66.7618   92.0678   14.3784 C.ar    1  UNL1        0.0054
     12 C          66.5539   92.7088   15.7186 C.ar    1  UNL1        0.0208
     13 C          67.7271   93.2477   16.4823 C.ar    1  UNL1        0.1013
     14 N          69.1082   93.1455   15.9059 N.ar    1  UNL1       -0.2165
     15 C          69.3161   92.5045   14.5658 C.ar    1  UNL1        0.2223
     16 F          70.6972   92.4022   13.9893 F       1  UNL1       -0.1832
     17 C          68.1429   91.9656   13.8021 C.ar    1  UNL1        0.0497
     18 C          60.0903   88.2409   11.1234 C.3     1  UNL1        0.0945
     19 C          58.6943   88.5546   11.5735 C.3     1  UNL1        0.0262
     20 C          61.7884   85.7192    8.5723 C.ar    1  UNL1        0.1385
     21 C          60.7590   85.6830    7.4820 C.ar    1  UNL1        0.0369
     22 C          59.5067   86.4994    7.6054 C.ar    1  UNL1        0.0028
     23 C          59.2838   87.3520    8.8192 C.ar    1  UNL1       -0.0025
     24 C          60.3132   87.3882    9.9095 C.ar    1  UNL1       -0.0015
     25 C          61.5655   86.5718    9.7861 C.ar    1  UNL1        0.0342
     26 C          63.5667   84.1522    9.6362 C.3     1  UNL1        0.2525
     27 O          63.0407   84.9028    8.4489 O.3     1  UNL1       -0.4714
@<TRIPOS>BOND
     1    26    27    1
     2    27    20    1
     3    20    21   ar
     4    21    22   ar
     5    22    23   ar
     6    23    24   ar
     7    24    18    1
     8    18    19    1
     9    18     1    1
    10     1     2   am
    11     2     3    2
    12     2     5    1
    13     5     6   ar
    14     6     7   ar
    15     7     8   ar
    16     8    11    1
    17    11    12   ar
    18    12    13   ar
    19    13    14   ar
    20    14    15   ar
    21    15    16    1
    22    15    17   ar
    23     8     9   ar
    24     9    10   ar
    25    24    25   ar
    26    25    20   ar
    27    10     5   ar
    28    17    11   ar
    29     1     4    1
@<TRIPOS>MOLECULE
*****
 27 29 0 0 0
SMALL
GASTEIGER

@<TRIPOS>ATOM
      1 N          63.2354   88.9265   12.5842 N.am    1  UNL1       -0.2987
      2 C          62.7592   88.1054   11.4227 C.2     1  UNL1        0.2460
      3 O          62.3053   88.7809   10.1626 O.2     1  UNL1       -0.2701
      4 H          63.5333   88.4831   13.4112 H       1  UNL1        0.1500
      5 C          62.7367   86.6088   11.5213 C.ar    1  UNL1        0.0534
      6 C          62.3580   85.7841   10.3269 C.ar    1  UNL1        0.0045
      7 C          62.3356   84.2875   10.4255 C.ar    1  UNL1        0.0001
      8 C          62.6918   83.6156   11.7185 C.ar    1  UNL1        0.0002
      9 C          63.0705   84.4403   12.9128 C.ar    1  UNL1        0.0001
     10 C          63.0929   85.9369   12.8142 C.ar    1  UNL1        0.0045
     11 C          62.6694   82.1191   11.8170 C.ar    1  UNL1        0.0054
     12 C          62.3587   81.4583   13.1274 C.ar    1  UNL1        0.0208
     13 C          62.3362   79.9617   13.2260 C.ar    1  UNL1        0.1013
     14 N          62.6245   79.1259   12.0142 N.ar    1  UNL1       -0.2165
     15 C          62.9352   79.7866   10.7039 C.ar    1  UNL1        0.2223
     16 F          63.2234   78.9508    9.4921 F       1  UNL1       -0.1832
     17 C          62.9576   81.2832   10.6053 C.ar    1  UNL1        0.0497
     18 C          63.2579   90.4231   12.4856 C.3     1  UNL1        0.0945
     19 C          62.1049   91.1509   11.8604 C.3     1  UNL1        0.0262
     20 C          66.2261   93.0478   12.7100 C.ar    1  UNL1        0.1385
     21 C          66.7843   92.7293   14.0653 C.ar    1  UNL1        0.0369
     22 C          66.1670   91.6421   14.8941 C.ar    1  UNL1        0.0028
     23 C          64.9915   90.8734   14.3676 C.ar    1  UNL1       -0.0025
     24 C          64.4334   91.1918   13.0122 C.ar    1  UNL1       -0.0015
     25 C          65.0507   92.2791   12.1834 C.ar    1  UNL1        0.0342
     26 C          66.2654   94.4752   10.5395 C.3     1  UNL1        0.2525
     27 O          66.8434   94.1350   11.8812 O.3     1  UNL1       -0.4714
@<TRIPOS>BOND
     1    26    27    1
     2    27    20    1
     3    20    21   ar
     4    21    22   ar
     5    22    23   ar
     6    23    24   ar
     7    24    18    1
     8    18    19    1
     9    18     1    1
    10     1     2   am
    11     2     3    2
    12     2     5    1
    13     5     6   ar
    14     6     7   ar
    15     7     8   ar
    16     8    11    1
    17    11    12   ar
    18    12    13   ar
    19    13    14   ar
    20    14    15   ar
    21    15    16    1
    22    15    17   ar
    23     8     9   ar
    24     9    10   ar
    25    24    25   ar
    26    25    20   ar
    27    10     5   ar
    28    17    11   ar
    29     1     4    1
@<TRIPOS>MOLECULE
*****
 27 29 0 0 0
SMALL
GASTEIGER

@<TRIPOS>ATOM
      1 N          63.6087   89.4869   10.8877 N.am    1  UNL1       -0.2987
      2 C          62.7152   88.8160   11.8884 C.2     1  UNL1        0.2460
      3 O          61.8268   89.6406   12.7721 O.2     1  UNL1       -0.2701
      4 H          64.1918   88.9457   10.3077 H       1  UNL1        0.1500
      5 C          62.7099   87.3206   12.0054 C.ar    1  UNL1        0.0534
      6 C          61.9855   86.4911   10.9869 C.ar    1  UNL1        0.0045
      7 C          61.9802   84.9957   11.1039 C.ar    1  UNL1        0.0001
      8 C          62.6994   84.3297   12.2394 C.ar    1  UNL1        0.0002
      9 C          63.4238   85.1592   13.2578 C.ar    1  UNL1        0.0001
     10 C          63.4290   86.6546   13.1408 C.ar    1  UNL1        0.0045
     11 C          62.6942   82.8343   12.3564 C.ar    1  UNL1        0.0054
     12 C          62.5199   82.1876   13.6986 C.ar    1  UNL1        0.0208
     13 C          62.5147   80.6922   13.8156 C.ar    1  UNL1        0.1013
     14 N          62.6837   79.8435   12.5904 N.ar    1  UNL1       -0.2165
     15 C          62.8579   80.4901   11.2482 C.ar    1  UNL1        0.2223
     16 F          63.0268   79.6414   10.0230 F       1  UNL1       -0.1832
     17 C          62.8631   81.9856   11.1312 C.ar    1  UNL1        0.0497
     18 C          63.6140   90.9823   10.7707 C.3     1  UNL1        0.0945
     19 C          62.6597   91.6648    9.8362 C.3     1  UNL1        0.0262
     20 C          65.6961   92.3269   13.8702 C.ar    1  UNL1        0.1385
     21 C          66.4929   93.4208   13.2234 C.ar    1  UNL1        0.0369
     22 C          66.3300   93.7019   11.7590 C.ar    1  UNL1        0.0028
     23 C          65.3704   92.8891   10.9414 C.ar    1  UNL1       -0.0025
     24 C          64.5737   91.7952   11.5883 C.ar    1  UNL1       -0.0015
     25 C          64.7365   91.5141   13.0527 C.ar    1  UNL1        0.0342
     26 C          66.9520   92.7189   16.1105 C.3     1  UNL1        0.2525
     27 O          65.8589   92.0458   15.3346 O.3     1  UNL1       -0.4714
@<TRIPOS>BOND
     1    26    27    1
     2    27    20    1
     3    20    21   ar
     4    21    22   ar
     5    22    23   ar
     6    23    24   ar
     7    24    18    1
     8    18    19    1
     9    18     1    1
    10     1     2   am
    11     2     3    2
    12     2     5    1
    13     5     6   ar
    14     6     7   ar
    15     7     8   ar
    16     8    11    1
    17    11    12   ar
    18    12    13   ar
    19    13    14   ar
    20    14    15   ar
    21    15    16    1
    22    15    17   ar
    23     8     9   ar
    24     9    10   ar
    25    24    25   ar
    26    25    20   ar
    27    10     5   ar
    28    17    11   ar
    29     1     4    1
