@<TRIPOS>MOLECULE
*****
 50 54 0 0 0
SMALL
GASTEIGER

@<TRIPOS>ATOM
      1 C          60.7212   86.9764    9.0165 C.3     1  UNL1        0.0964
      2 C          59.8475   86.1640    8.1073 C.3     1  UNL1        0.0780
      3 N          58.7914   86.8381    7.2825 N.3     1  UNL1       -0.2970
      4 C          58.6090   88.3245    7.3669 C.3     1  UNL1        0.0689
      5 C          59.4827   89.1370    8.2761 C.3     1  UNL1        0.0220
      6 C          60.5388   88.4629    9.1009 C.3     1  UNL1        0.0337
      7 H          57.9001   86.4167    7.5440 H       1  UNL1        0.1233
      8 C          61.4125   89.2753   10.0101 C.ar    1  UNL1       -0.0217
      9 C          62.5079   90.1243    9.4363 C.ar    1  UNL1       -0.0012
     10 C          63.3816   90.9367   10.3455 C.ar    1  UNL1        0.0366
     11 C          63.1599   90.9000   11.8286 C.ar    1  UNL1        0.1387
     12 C          62.0646   90.0511   12.4024 C.ar    1  UNL1        0.0366
     13 C          61.1908   89.2386   11.4932 C.ar    1  UNL1       -0.0012
     14 O          64.0336   91.7124   12.7378 O.3     1  UNL1       -0.4714
     15 C          65.4011   92.1321   12.2861 C.3     1  UNL1        0.2525
     16 C          66.0462   93.3493   12.8794 C.3     1  UNL1        0.2525
     17 O          67.1598   94.0394   12.1489 O.3     1  UNL1       -0.4697
     18 C          66.8839   94.7435   10.8535 C.ar    1  UNL1        0.1596
     19 C          67.1721   94.0577    9.5509 C.ar    1  UNL1        0.0921
     20 CL         67.7360   92.6678    9.5438 Cl      1  UNL1       -0.0791
     21 C          66.8962   94.7618    8.2555 C.ar    1  UNL1        0.0103
     22 C          66.3322   96.1518    8.2626 C.ar    1  UNL1       -0.0200
     23 C          66.0564   96.8559    6.9672 C.3     1  UNL1        0.0311
     24 C          66.0441   96.8376    9.5652 C.ar    1  UNL1        0.0103
     25 C          66.3200   96.1334   10.8606 C.ar    1  UNL1        0.0921
     26 CL         66.0318   96.8192   12.1632 Cl      1  UNL1       -0.0791
     27 N          62.6881   85.2902    9.2120 N.am    1  UNL1       -0.2770
     28 C          61.7773   86.3023    9.8413 C.2     1  UNL1        0.2270
     29 O          61.9226   86.6403   11.2955 O.2     1  UNL1       -0.2748
     30 C          62.5428   84.9522    7.7578 C.3     1  UNL1        0.0758
     31 C          61.6709   84.7001    6.5636 C.3     1  UNL1        0.0215
     32 C          63.1630   84.6189    6.4334 C.3     1  UNL1        0.0215
     33 C          63.7442   84.6161   10.0368 C.3     1  UNL1        0.1201
     34 C          62.5596   82.1007   12.8686 C.ar    1  UNL1       -0.0194
     35 C          62.9029   82.6539   11.5172 C.ar    1  UNL1       -0.0067
     36 C          63.4009   84.0629   11.3881 C.ar    1  UNL1        0.0004
     37 C          63.5557   84.9187   12.6103 C.ar    1  UNL1        0.0343
     38 C          63.2125   84.3654   13.9616 C.ar    1  UNL1        0.1380
     39 C          62.7145   82.9565   14.0908 C.ar    1  UNL1        0.0326
     40 O          63.3673   85.2212   15.1838 O.3     1  UNL1       -0.4740
     41 C          64.4398   86.2687   15.2351 C.3     1  UNL1        0.2226
     42 C          64.1002   87.7037   14.9603 C.3     1  UNL1        0.1201
     43 N          63.4893   88.5495   16.0381 N.3     1  UNL1       -0.2672
     44 C          62.8711   87.9005   17.2408 C.3     1  UNL1        0.0898
     45 C          63.4967   90.0442   15.9130 C.3     1  UNL1        0.0898
     46 C          62.0616   80.6917   12.9978 C.3     1  UNL1        0.0290
     47 C          61.1749   80.3120   14.1466 C.3     1  UNL1        0.0367
     48 C          59.7266   80.7024   14.1371 C.3     1  UNL1        0.1426
     49 C          58.7790   78.3152   14.5285 C.3     1  UNL1        0.1741
     50 O          58.7016   79.7964   14.7522 O.3     1  UNL1       -0.3511
@<TRIPOS>BOND
     1    49    50    1
     2    50    48    1
     3    48    47    1
     4    47    46    1
     5    46    34    1
     6    34    35   ar
     7    35    36   ar
     8    36    33    1
     9    33    27    1
    10    27    28   am
    11    28    29    2
    12     1    28    1
    13     1     2    1
    14     2     3    1
    15     3     4    1
    16     4     5    1
    17     5     6    1
    18     6     8    1
    19     8     9   ar
    20     9    10   ar
    21    10    11   ar
    22    11    14    1
    23    14    15    1
    24    15    16    1
    25    16    17    1
    26    17    18    1
    27    18    19   ar
    28    19    20    1
    29    19    21   ar
    30    21    22   ar
    31    22    23    1
    32    22    24   ar
    33    24    25   ar
    34    25    26    1
    35    11    12   ar
    36    12    13   ar
    37    27    30    1
    38    30    31    1
    39    31    32    1
    40    36    37   ar
    41    37    38   ar
    42    38    40    1
    43    40    41    1
    44    41    42    1
    45    42    43    1
    46    43    44    1
    47    43    45    1
    48    38    39   ar
    49    39    34   ar
    50     6     1    1
    51    13     8   ar
    52    32    30    1
    53    25    18   ar
    54     3     7    1
@<TRIPOS>MOLECULE
*****
 50 54 0 0 0
SMALL
GASTEIGER

@<TRIPOS>ATOM
      1 C          60.7294   86.8620    9.4770 C.3     1  UNL1        0.0964
      2 C          59.8515   86.0569    8.5653 C.3     1  UNL1        0.0780
      3 N          58.8704   86.7483    7.6656 N.3     1  UNL1       -0.2970
      4 C          58.7673   88.2446    7.6774 C.3     1  UNL1        0.0689
      5 C          59.6452   89.0497    8.5891 C.3     1  UNL1        0.0220
      6 C          60.6263   88.3584    9.4889 C.3     1  UNL1        0.0337
      7 H          57.9468   86.3875    7.9046 H       1  UNL1        0.1233
      8 C          61.5042   89.1635   10.4005 C.ar    1  UNL1       -0.0217
      9 C          61.1220   89.3485   11.8392 C.ar    1  UNL1       -0.0012
     10 C          61.9999   90.1535   12.7509 C.ar    1  UNL1        0.0366
     11 C          63.2600   90.7736   12.2239 C.ar    1  UNL1        0.1387
     12 C          63.6422   90.5885   10.7853 C.ar    1  UNL1        0.0366
     13 C          62.7643   89.7835    9.8736 C.ar    1  UNL1       -0.0012
     14 O          64.1379   91.5786   13.1356 O.3     1  UNL1       -0.4714
     15 C          65.4985   92.0124   12.6764 C.3     1  UNL1        0.2525
     16 C          65.8725   93.4647   12.7065 C.3     1  UNL1        0.2525
     17 O          67.0837   93.9428   11.9620 O.3     1  UNL1       -0.4697
     18 C          66.9249   94.6711   10.6603 C.ar    1  UNL1        0.1596
     19 C          66.3686   96.0640   10.6432 C.ar    1  UNL1        0.0921
     20 CL         65.9711   96.7286   11.9278 Cl      1  UNL1       -0.0791
     21 C          66.2098   96.7923    9.3415 C.ar    1  UNL1        0.0103
     22 C          66.6073   96.1277    8.0569 C.ar    1  UNL1       -0.0200
     23 C          66.4485   96.8560    6.7552 C.3     1  UNL1        0.0311
     24 C          67.1636   94.7347    8.0740 C.ar    1  UNL1        0.0103
     25 C          67.3224   94.0065    9.3756 C.ar    1  UNL1        0.0921
     26 CL         67.8788   92.6135    9.3927 Cl      1  UNL1       -0.0791
     27 N          62.7314   85.2372    9.7967 N.am    1  UNL1       -0.2770
     28 C          61.7105   86.1706   10.3767 C.2     1  UNL1        0.2270
     29 O          61.6705   86.4127   11.8566 O.2     1  UNL1       -0.2748
     30 C          62.7712   84.9952    8.3170 C.3     1  UNL1        0.0758
     31 C          63.5509   84.8713    7.0415 C.3     1  UNL1        0.0215
     32 C          62.0608   84.6999    7.0294 C.3     1  UNL1        0.0215
     33 C          63.7124   84.5459   10.6965 C.3     1  UNL1        0.1201
     34 C          62.0304   82.5126   13.6607 C.ar    1  UNL1       -0.0194
     35 C          62.4412   82.9229   12.2776 C.ar    1  UNL1       -0.0067
     36 C          63.3016   84.1356   12.0795 C.ar    1  UNL1        0.0004
     37 C          63.7511   84.9379   13.2646 C.ar    1  UNL1        0.0343
     38 C          63.3402   84.5276   14.6476 C.ar    1  UNL1        0.1380
     39 C          62.4799   83.3149   14.8456 C.ar    1  UNL1        0.0326
     40 O          63.7897   85.3299   15.8326 O.3     1  UNL1       -0.4740
     41 C          62.7892   86.1082   16.6346 C.3     1  UNL1        0.2226
     42 C          63.1232   87.4900   17.1130 C.3     1  UNL1        0.1201
     43 N          63.5117   88.5516   16.1270 N.3     1  UNL1       -0.2672
     44 C          64.2575   88.1800   14.8798 C.3     1  UNL1        0.0898
     45 C          63.1545   89.9848   16.3884 C.3     1  UNL1        0.0898
     46 C          61.1700   81.2999   13.8588 C.3     1  UNL1        0.0290
     47 C          61.7075   79.9378   13.5336 C.3     1  UNL1        0.0367
     48 C          62.8954   79.7967   12.6286 C.3     1  UNL1        0.1426
     49 C          62.7495   78.4284   10.4249 C.3     1  UNL1        0.1741
     50 O          62.7037   79.7452   11.1418 O.3     1  UNL1       -0.3511
@<TRIPOS>BOND
     1    49    50    1
     2    50    48    1
     3    48    47    1
     4    47    46    1
     5    46    34    1
     6    34    35   ar
     7    35    36   ar
     8    36    33    1
     9    33    27    1
    10    27    28   am
    11    28    29    2
    12     1    28    1
    13     1     2    1
    14     2     3    1
    15     3     4    1
    16     4     5    1
    17     5     6    1
    18     6     8    1
    19     8     9   ar
    20     9    10   ar
    21    10    11   ar
    22    11    14    1
    23    14    15    1
    24    15    16    1
    25    16    17    1
    26    17    18    1
    27    18    19   ar
    28    19    20    1
    29    19    21   ar
    30    21    22   ar
    31    22    23    1
    32    22    24   ar
    33    24    25   ar
    34    25    26    1
    35    11    12   ar
    36    12    13   ar
    37    27    30    1
    38    30    31    1
    39    31    32    1
    40    36    37   ar
    41    37    38   ar
    42    38    40    1
    43    40    41    1
    44    41    42    1
    45    42    43    1
    46    43    44    1
    47    43    45    1
    48    38    39   ar
    49    39    34   ar
    50     6     1    1
    51    13     8   ar
    52    32    30    1
    53    25    18   ar
    54     3     7    1
@<TRIPOS>MOLECULE
*****
 50 54 0 0 0
SMALL
GASTEIGER

@<TRIPOS>ATOM
      1 C          65.5682   92.5165   13.5254 C.3     1  UNL1        0.0964
      2 C          66.4125   93.6963   13.1442 C.3     1  UNL1        0.0780
      3 N          67.4691   94.1973   14.0837 N.3     1  UNL1       -0.2970
      4 C          67.6813   93.5187   15.4044 C.3     1  UNL1        0.0689
      5 C          66.8370   92.3389   15.7857 C.3     1  UNL1        0.0220
      6 C          65.7804   91.8378   14.8462 C.3     1  UNL1        0.0337
      7 H          67.2452   95.1717   14.2859 H       1  UNL1        0.1233
      8 C          64.9361   90.6581   15.2274 C.ar    1  UNL1       -0.0217
      9 C          63.9181   90.7866   16.3217 C.ar    1  UNL1       -0.0012
     10 C          63.0738   89.6069   16.7029 C.ar    1  UNL1        0.0366
     11 C          63.2475   88.2987   15.9899 C.ar    1  UNL1        0.1387
     12 C          64.2654   88.1701   14.8958 C.ar    1  UNL1        0.0366
     13 C          65.1098   89.3499   14.5145 C.ar    1  UNL1       -0.0012
     14 O          62.4032   87.1189   16.3712 O.3     1  UNL1       -0.4714
     15 C          63.0355   85.7704   16.5495 C.3     1  UNL1        0.2525
     16 C          62.3125   84.5371   16.0953 C.3     1  UNL1        0.2525
     17 O          63.0877   83.3103   15.7161 O.3     1  UNL1       -0.4697
     18 C          63.3243   82.9898   14.2699 C.ar    1  UNL1        0.1596
     19 C          64.4448   83.6558   13.5276 C.ar    1  UNL1        0.0921
     20 CL         65.3287   84.6423   14.2315 Cl      1  UNL1       -0.0791
     21 C          64.6814   83.3353   12.0814 C.ar    1  UNL1        0.0103
     22 C          63.7974   82.3488   11.3776 C.ar    1  UNL1       -0.0200
     23 C          64.0339   82.0283    9.9314 C.3     1  UNL1        0.0311
     24 C          62.6769   81.6828   12.1199 C.ar    1  UNL1        0.0103
     25 C          62.4404   82.0033   13.5660 C.ar    1  UNL1        0.0921
     26 CL         61.3199   81.3373   14.3083 Cl      1  UNL1       -0.0791
     27 N          64.7772   91.9775   11.1101 N.am    1  UNL1       -0.2770
     28 C          64.5117   92.0155   12.5859 C.2     1  UNL1        0.2270
     29 O          63.1896   91.5523   13.1223 O.2     1  UNL1       -0.2748
     30 C          66.0993   92.4406   10.5738 C.3     1  UNL1        0.0758
     31 C          66.9319   93.4905    9.8997 C.3     1  UNL1        0.0215
     32 C          67.5566   92.1929   10.3191 C.3     1  UNL1        0.0215
     33 C          63.7207   91.4764   10.1706 C.3     1  UNL1        0.1201
     34 C          60.3927   89.6872   11.3844 C.ar    1  UNL1       -0.0194
     35 C          61.3457   90.7569   10.9397 C.ar    1  UNL1       -0.0067
     36 C          62.7677   90.4068   10.6153 C.ar    1  UNL1        0.0004
     37 C          63.2368   88.9871   10.7356 C.ar    1  UNL1        0.0343
     38 C          62.2838   87.9175   11.1803 C.ar    1  UNL1        0.1380
     39 C          60.8618   88.2676   11.5047 C.ar    1  UNL1        0.0326
     40 O          62.7529   86.4978   11.3006 O.3     1  UNL1       -0.4740
     41 C          62.2897   85.4686   10.3126 C.3     1  UNL1        0.2226
     42 C          62.6965   85.5748    8.8727 C.3     1  UNL1        0.1201
     43 N          61.6533   85.5542    7.7951 N.3     1  UNL1       -0.2672
     44 C          60.3660   86.3009    7.9831 C.3     1  UNL1        0.0898
     45 C          61.8973   84.7869    6.5295 C.3     1  UNL1        0.0898
     46 C          58.9707   90.0373   11.7088 C.3     1  UNL1        0.0290
     47 C          58.3738   89.6131   13.0180 C.3     1  UNL1        0.0367
     48 C          57.6213   88.3192   13.1150 C.3     1  UNL1        0.1426
     49 C          55.4129   87.0629   13.6576 C.3     1  UNL1        0.1741
     50 O          56.1328   88.3292   13.2996 O.3     1  UNL1       -0.3511
@<TRIPOS>BOND
     1    49    50    1
     2    50    48    1
     3    48    47    1
     4    47    46    1
     5    46    34    1
     6    34    35   ar
     7    35    36   ar
     8    36    33    1
     9    33    27    1
    10    27    28   am
    11    28    29    2
    12     1    28    1
    13     1     2    1
    14     2     3    1
    15     3     4    1
    16     4     5    1
    17     5     6    1
    18     6     8    1
    19     8     9   ar
    20     9    10   ar
    21    10    11   ar
    22    11    14    1
    23    14    15    1
    24    15    16    1
    25    16    17    1
    26    17    18    1
    27    18    19   ar
    28    19    20    1
    29    19    21   ar
    30    21    22   ar
    31    22    23    1
    32    22    24   ar
    33    24    25   ar
    34    25    26    1
    35    11    12   ar
    36    12    13   ar
    37    27    30    1
    38    30    31    1
    39    31    32    1
    40    36    37   ar
    41    37    38   ar
    42    38    40    1
    43    40    41    1
    44    41    42    1
    45    42    43    1
    46    43    44    1
    47    43    45    1
    48    38    39   ar
    49    39    34   ar
    50     6     1    1
    51    13     8   ar
    52    32    30    1
    53    25    18   ar
    54     3     7    1
@<TRIPOS>MOLECULE
*****
 50 54 0 0 0
SMALL
GASTEIGER

@<TRIPOS>ATOM
      1 C          60.7121   86.8438    9.3175 C.3     1  UNL1        0.0964
      2 C          59.8121   86.0193    8.4457 C.3     1  UNL1        0.0780
      3 N          58.8293   86.6920    7.5337 N.3     1  UNL1       -0.2970
      4 C          58.7466   88.1891    7.4936 C.3     1  UNL1        0.0689
      5 C          59.6466   89.0137    8.3655 C.3     1  UNL1        0.0220
      6 C          60.6294   88.3410    9.2774 C.3     1  UNL1        0.0337
      7 H          57.9039   86.3528    7.7965 H       1  UNL1        0.1233
      8 C          61.5294   89.1655   10.1493 C.ar    1  UNL1       -0.0217
      9 C          62.6042   90.0101    9.5315 C.ar    1  UNL1       -0.0012
     10 C          63.5042   90.8346   10.4033 C.ar    1  UNL1        0.0366
     11 C          63.3295   90.8145   11.8930 C.ar    1  UNL1        0.1387
     12 C          62.2547   89.9700   12.5108 C.ar    1  UNL1        0.0366
     13 C          61.3547   89.1455   11.6389 C.ar    1  UNL1       -0.0012
     14 O          64.2295   91.6390   12.7648 O.3     1  UNL1       -0.4714
     15 C          65.0378   92.7527   12.1677 C.3     1  UNL1        0.2525
     16 C          66.5343   92.7299   12.2669 C.3     1  UNL1        0.2525
     17 O          67.3307   93.9370   11.8686 O.3     1  UNL1       -0.4697
     18 C          67.0060   94.6637   10.5971 C.ar    1  UNL1        0.1596
     19 C          67.3752   94.0616    9.2738 C.ar    1  UNL1        0.0921
     20 CL         68.0691   92.7327    9.2220 Cl      1  UNL1       -0.0791
     21 C          67.0506   94.7883    8.0024 C.ar    1  UNL1        0.0103
     22 C          66.3567   96.1171    8.0542 C.ar    1  UNL1       -0.0200
     23 C          66.0320   96.8438    6.7829 C.3     1  UNL1        0.0311
     24 C          65.9875   96.7192    9.3776 C.ar    1  UNL1        0.0103
     25 C          66.3121   95.9925   10.6490 C.ar    1  UNL1        0.0921
     26 CL         65.9429   96.5947   11.9723 Cl      1  UNL1       -0.0791
     27 N          62.7160   85.2275    9.6667 N.am    1  UNL1       -0.2770
     28 C          61.6949   86.1711   10.2295 C.2     1  UNL1        0.2270
     29 O          61.6565   86.4422   11.7043 O.2     1  UNL1       -0.2748
     30 C          62.7543   84.9565    8.1919 C.3     1  UNL1        0.0758
     31 C          63.4452   85.0790    6.8661 C.3     1  UNL1        0.0215
     32 C          62.1299   84.3646    6.9632 C.3     1  UNL1        0.0215
     33 C          63.6988   84.5548   10.5786 C.3     1  UNL1        0.1201
     34 C          63.3435   84.5818   14.5312 C.ar    1  UNL1       -0.0194
     35 C          63.7545   84.9720   13.1424 C.ar    1  UNL1       -0.0067
     36 C          63.2877   84.1647   11.9674 C.ar    1  UNL1        0.0004
     37 C          62.4099   82.9673   12.1814 C.ar    1  UNL1        0.0343
     38 C          61.9988   82.5773   13.5702 C.ar    1  UNL1        0.1380
     39 C          62.4656   83.3845   14.7451 C.ar    1  UNL1        0.0326
     40 O          61.1210   81.3799   13.7841 O.3     1  UNL1       -0.4740
     41 C          61.6453   80.0044   13.4961 C.3     1  UNL1        0.2226
     42 C          62.9221   79.8343   12.7275 C.3     1  UNL1        0.1201
     43 N          62.8810   79.6134   11.2444 N.3     1  UNL1       -0.2672
     44 C          63.1393   80.7567   10.3084 C.3     1  UNL1        0.0898
     45 C          62.5815   78.2492   10.6973 C.3     1  UNL1        0.0898
     46 C          63.8103   85.3891   15.7062 C.3     1  UNL1        0.0290
     47 C          62.8273   85.8349   16.7479 C.3     1  UNL1        0.0367
     48 C          62.9247   87.2142   17.3294 C.3     1  UNL1        0.1426
     49 C          63.1708   89.6957   16.6007 C.3     1  UNL1        0.1741
     50 O          62.4271   88.3942   16.5485 O.3     1  UNL1       -0.3511
@<TRIPOS>BOND
     1    49    50    1
     2    50    48    1
     3    48    47    1
     4    47    46    1
     5    46    34    1
     6    34    35   ar
     7    35    36   ar
     8    36    33    1
     9    33    27    1
    10    27    28   am
    11    28    29    2
    12     1    28    1
    13     1     2    1
    14     2     3    1
    15     3     4    1
    16     4     5    1
    17     5     6    1
    18     6     8    1
    19     8     9   ar
    20     9    10   ar
    21    10    11   ar
    22    11    14    1
    23    14    15    1
    24    15    16    1
    25    16    17    1
    26    17    18    1
    27    18    19   ar
    28    19    20    1
    29    19    21   ar
    30    21    22   ar
    31    22    23    1
    32    22    24   ar
    33    24    25   ar
    34    25    26    1
    35    11    12   ar
    36    12    13   ar
    37    27    30    1
    38    30    31    1
    39    31    32    1
    40    36    37   ar
    41    37    38   ar
    42    38    40    1
    43    40    41    1
    44    41    42    1
    45    42    43    1
    46    43    44    1
    47    43    45    1
    48    38    39   ar
    49    39    34   ar
    50     6     1    1
    51    13     8   ar
    52    32    30    1
    53    25    18   ar
    54     3     7    1
@<TRIPOS>MOLECULE
*****
 50 54 0 0 0
SMALL
GASTEIGER

@<TRIPOS>ATOM
      1 C          59.9162   88.3004    9.2168 C.3     1  UNL1        0.0964
      2 C          58.9901   87.7176    8.1910 C.3     1  UNL1        0.0780
      3 N          58.7963   88.4113    6.8752 N.3     1  UNL1       -0.2970
      4 C          59.5287   89.6878    6.5853 C.3     1  UNL1        0.0689
      5 C          60.4549   90.2707    7.6112 C.3     1  UNL1        0.0220
      6 C          60.6487   89.5770    8.9270 C.3     1  UNL1        0.0337
      7 H          57.8007   88.6184    6.7953 H       1  UNL1        0.1233
      8 C          61.5749   90.1599    9.9528 C.ar    1  UNL1       -0.0217
      9 C          62.7604   90.9700    9.5189 C.ar    1  UNL1       -0.0012
     10 C          63.6865   91.5529   10.5448 C.ar    1  UNL1        0.0366
     11 C          63.4273   91.3256   12.0046 C.ar    1  UNL1        0.1387
     12 C          62.2418   90.5154   12.4386 C.ar    1  UNL1        0.0366
     13 C          61.3156   89.9325   11.4127 C.ar    1  UNL1       -0.0012
     14 O          64.3534   91.9084   13.0305 O.3     1  UNL1       -0.4714
     15 C          65.4523   91.0690   13.6119 C.3     1  UNL1        0.2525
     16 C          66.8273   91.6447   13.7793 C.3     1  UNL1        0.2525
     17 O          67.6401   92.0084   12.5723 O.3     1  UNL1       -0.4697
     18 C          67.1962   93.1286   11.6788 C.ar    1  UNL1        0.1596
     19 C          66.5814   94.3619   12.2713 C.ar    1  UNL1        0.0921
     20 CL         66.4105   94.4750   13.7572 Cl      1  UNL1       -0.0791
     21 C          66.1375   95.4821   11.3779 C.ar    1  UNL1        0.0103
     22 C          66.3085   95.3689    9.8919 C.ar    1  UNL1       -0.0200
     23 C          65.8646   96.4891    8.9985 C.3     1  UNL1        0.0311
     24 C          66.9233   94.1356    9.2995 C.ar    1  UNL1        0.0103
     25 C          67.3671   93.0155   10.1929 C.ar    1  UNL1        0.0921
     26 CL         67.9819   91.7821    9.6004 Cl      1  UNL1       -0.0791
     27 N          61.0778   86.4662   10.6438 N.am    1  UNL1       -0.2770
     28 C          60.1100   87.6068   10.5326 C.2     1  UNL1        0.2270
     29 O          59.3359   88.0537   11.7373 O.2     1  UNL1       -0.2748
     30 C          61.8518   86.0193    9.4392 C.3     1  UNL1        0.0758
     31 C          61.8798   85.4894    8.0362 C.3     1  UNL1        0.0215
     32 C          63.1645   85.7752    8.7557 C.3     1  UNL1        0.0215
     33 C          61.2716   85.7725   11.9596 C.3     1  UNL1        0.1201
     34 C          63.5537   82.5520   11.5466 C.ar    1  UNL1       -0.0194
     35 C          62.4206   83.5187   11.3680 C.ar    1  UNL1       -0.0067
     36 C          62.4045   84.8059   12.1381 C.ar    1  UNL1        0.0004
     37 C          63.5214   85.1263   13.0868 C.ar    1  UNL1        0.0343
     38 C          64.6544   84.1596   13.2653 C.ar    1  UNL1        0.1380
     39 C          64.6705   82.8725   12.4952 C.ar    1  UNL1        0.0326
     40 O          65.7713   84.4800   14.2140 O.3     1  UNL1       -0.4740
     41 C          65.5635   85.4899   15.3035 C.3     1  UNL1        0.2226
     42 C          64.5565   86.5875   15.1266 C.3     1  UNL1        0.1201
     43 N          63.4854   86.7957   16.1559 N.3     1  UNL1       -0.2672
     44 C          63.1799   88.1782   16.6512 C.3     1  UNL1        0.0898
     45 C          62.7199   85.6215   16.6898 C.3     1  UNL1        0.0898
     46 C          63.5698   81.2649   10.7765 C.3     1  UNL1        0.0290
     47 C          62.8477   80.0630   11.3094 C.3     1  UNL1        0.0367
     48 C          62.8062   79.8070   12.7868 C.3     1  UNL1        0.1426
     49 C          61.4127   81.4499   14.2391 C.3     1  UNL1        0.1741
     50 O          61.5633   80.1173   13.5671 O.3     1  UNL1       -0.3511
@<TRIPOS>BOND
     1    49    50    1
     2    50    48    1
     3    48    47    1
     4    47    46    1
     5    46    34    1
     6    34    35   ar
     7    35    36   ar
     8    36    33    1
     9    33    27    1
    10    27    28   am
    11    28    29    2
    12     1    28    1
    13     1     2    1
    14     2     3    1
    15     3     4    1
    16     4     5    1
    17     5     6    1
    18     6     8    1
    19     8     9   ar
    20     9    10   ar
    21    10    11   ar
    22    11    14    1
    23    14    15    1
    24    15    16    1
    25    16    17    1
    26    17    18    1
    27    18    19   ar
    28    19    20    1
    29    19    21   ar
    30    21    22   ar
    31    22    23    1
    32    22    24   ar
    33    24    25   ar
    34    25    26    1
    35    11    12   ar
    36    12    13   ar
    37    27    30    1
    38    30    31    1
    39    31    32    1
    40    36    37   ar
    41    37    38   ar
    42    38    40    1
    43    40    41    1
    44    41    42    1
    45    42    43    1
    46    43    44    1
    47    43    45    1
    48    38    39   ar
    49    39    34   ar
    50     6     1    1
    51    13     8   ar
    52    32    30    1
    53    25    18   ar
    54     3     7    1
@<TRIPOS>MOLECULE
*****
 50 54 0 0 0
SMALL
GASTEIGER

@<TRIPOS>ATOM
      1 C          65.7372   92.2348   13.6406 C.3     1  UNL1        0.0964
      2 C          66.6933   93.3261   13.2600 C.3     1  UNL1        0.0780
      3 N          67.9157   93.5763   14.0925 N.3     1  UNL1       -0.2970
      4 C          68.1820   92.7352   15.3056 C.3     1  UNL1        0.0689
      5 C          67.2259   91.6439   15.6863 C.3     1  UNL1        0.0220
      6 C          66.0034   91.3937   14.8538 C.3     1  UNL1        0.0337
      7 H          67.8621   94.5438   14.4110 H       1  UNL1        0.1233
      8 C          65.0473   90.3024   15.2344 C.ar    1  UNL1       -0.0217
      9 C          63.9714   90.5669   16.2457 C.ar    1  UNL1       -0.0012
     10 C          63.0153   89.4756   16.6263 C.ar    1  UNL1        0.0366
     11 C          63.1349   88.1199   15.9956 C.ar    1  UNL1        0.1387
     12 C          64.2108   87.8554   14.9844 C.ar    1  UNL1        0.0366
     13 C          65.1670   88.9467   14.6038 C.ar    1  UNL1       -0.0012
     14 O          62.1788   87.0286   16.3762 O.3     1  UNL1       -0.4714
     15 C          62.6741   85.6229   16.5459 C.3     1  UNL1        0.2525
     16 C          62.0480   84.5074   15.7626 C.3     1  UNL1        0.2525
     17 O          62.7598   83.1940   15.6280 O.3     1  UNL1       -0.4697
     18 C          62.9755   82.5935   14.2704 C.ar    1  UNL1        0.1596
     19 C          64.1753   82.9845   13.4594 C.ar    1  UNL1        0.0921
     20 CL         65.1593   83.9760   14.0059 Cl      1  UNL1       -0.0791
     21 C          64.3910   82.3840   12.1018 C.ar    1  UNL1        0.0103
     22 C          63.4070   81.3925   11.5553 C.ar    1  UNL1       -0.0200
     23 C          63.6226   80.7920   10.1978 C.3     1  UNL1        0.0311
     24 C          62.2072   81.0015   12.3664 C.ar    1  UNL1        0.0103
     25 C          61.9915   81.6020   13.7239 C.ar    1  UNL1        0.0921
     26 CL         60.7918   81.2110   14.5350 Cl      1  UNL1       -0.0791
     27 N          64.5915   92.0860   11.3136 N.am    1  UNL1       -0.2770
     28 C          64.5147   91.9846   12.8081 C.2     1  UNL1        0.2270
     29 O          63.2155   91.6330   13.4703 O.2     1  UNL1       -0.2748
     30 C          65.8907   92.4376   10.6515 C.3     1  UNL1        0.0758
     31 C          67.2740   92.0519   10.2182 C.3     1  UNL1        0.0215
     32 C          66.7578   93.4321    9.9381 C.3     1  UNL1        0.0215
     33 C          63.3691   91.8358   10.4811 C.3     1  UNL1        0.1201
     34 C          60.7782   88.9181    9.7570 C.ar    1  UNL1       -0.0194
     35 C          61.4642   90.2509    9.7005 C.ar    1  UNL1       -0.0067
     36 C          62.6830   90.5031   10.5376 C.ar    1  UNL1        0.0004
     37 C          63.2159   89.4226   11.4313 C.ar    1  UNL1        0.0343
     38 C          62.5298   88.0899   11.4878 C.ar    1  UNL1        0.1380
     39 C          61.3110   87.8376   10.6507 C.ar    1  UNL1        0.0326
     40 O          63.0627   87.0093   12.3815 O.3     1  UNL1       -0.4740
     41 C          62.8817   85.5684   12.0061 C.3     1  UNL1        0.2226
     42 C          62.0244   85.2015   10.8312 C.3     1  UNL1        0.1201
     43 N          62.6447   85.0209    9.4774 N.3     1  UNL1       -0.2672
     44 C          62.0388   85.6901    8.2795 C.3     1  UNL1        0.0898
     45 C          63.8709   84.1711    9.3216 C.3     1  UNL1        0.0898
     46 C          59.5593   88.6659    8.9199 C.3     1  UNL1        0.0290
     47 C          59.6780   88.5882    7.4266 C.3     1  UNL1        0.0367
     48 C          58.9430   89.5706    6.5637 C.3     1  UNL1        0.1426
     49 C          58.9943   91.5526    4.8848 C.3     1  UNL1        0.1741
     50 O          59.7016   90.4483    5.6129 O.3     1  UNL1       -0.3511
@<TRIPOS>BOND
     1    49    50    1
     2    50    48    1
     3    48    47    1
     4    47    46    1
     5    46    34    1
     6    34    35   ar
     7    35    36   ar
     8    36    33    1
     9    33    27    1
    10    27    28   am
    11    28    29    2
    12     1    28    1
    13     1     2    1
    14     2     3    1
    15     3     4    1
    16     4     5    1
    17     5     6    1
    18     6     8    1
    19     8     9   ar
    20     9    10   ar
    21    10    11   ar
    22    11    14    1
    23    14    15    1
    24    15    16    1
    25    16    17    1
    26    17    18    1
    27    18    19   ar
    28    19    20    1
    29    19    21   ar
    30    21    22   ar
    31    22    23    1
    32    22    24   ar
    33    24    25   ar
    34    25    26    1
    35    11    12   ar
    36    12    13   ar
    37    27    30    1
    38    30    31    1
    39    31    32    1
    40    36    37   ar
    41    37    38   ar
    42    38    40    1
    43    40    41    1
    44    41    42    1
    45    42    43    1
    46    43    44    1
    47    43    45    1
    48    38    39   ar
    49    39    34   ar
    50     6     1    1
    51    13     8   ar
    52    32    30    1
    53    25    18   ar
    54     3     7    1
@<TRIPOS>MOLECULE
*****
 50 54 0 0 0
SMALL
GASTEIGER

@<TRIPOS>ATOM
      1 C          59.9464   88.3092    9.2446 C.3     1  UNL1        0.0964
      2 C          59.0278   87.7492    8.1993 C.3     1  UNL1        0.0780
      3 N          58.8455   88.4706    6.8968 N.3     1  UNL1       -0.2970
      4 C          59.5817   89.7519    6.6397 C.3     1  UNL1        0.0689
      5 C          60.5003   90.3120    7.6850 C.3     1  UNL1        0.0220
      6 C          60.6826   89.5906    8.9875 C.3     1  UNL1        0.0337
      7 H          57.8509   88.6806    6.8133 H       1  UNL1        0.1233
      8 C          61.6011   90.1506   10.0328 C.ar    1  UNL1       -0.0217
      9 C          61.3380   89.8809   11.4847 C.ar    1  UNL1       -0.0012
     10 C          62.2565   90.4409   12.5301 C.ar    1  UNL1        0.0366
     11 C          63.4382   91.2705   12.1235 C.ar    1  UNL1        0.1387
     12 C          63.7014   91.5402   10.6716 C.ar    1  UNL1        0.0366
     13 C          62.7828   90.9802    9.6262 C.ar    1  UNL1       -0.0012
     14 O          64.3567   91.8305   13.1688 O.3     1  UNL1       -0.4714
     15 C          65.4918   91.0010   13.6920 C.3     1  UNL1        0.2525
     16 C          66.8561   91.6061   13.8415 C.3     1  UNL1        0.2525
     17 O          67.6523   91.9708   12.6238 O.3     1  UNL1       -0.4697
     18 C          67.1994   93.0955   11.7406 C.ar    1  UNL1        0.1596
     19 C          67.3595   92.9920   10.2528 C.ar    1  UNL1        0.0921
     20 CL         67.9726   91.7638    9.6481 Cl      1  UNL1       -0.0791
     21 C          66.9066   94.1168    9.3696 C.ar    1  UNL1        0.0103
     22 C          66.2935   95.3450    9.9744 C.ar    1  UNL1       -0.0200
     23 C          65.8406   96.4696    9.0913 C.3     1  UNL1        0.0311
     24 C          66.1334   95.4484   11.4623 C.ar    1  UNL1        0.0103
     25 C          66.5863   94.3237   12.3453 C.ar    1  UNL1        0.0921
     26 CL         66.4262   94.4272   13.8332 Cl      1  UNL1       -0.0791
     27 N          61.0804   86.4320   10.6375 N.am    1  UNL1       -0.2770
     28 C          60.1287   87.5879   10.5471 C.2     1  UNL1        0.2270
     29 O          59.3592   88.0224   11.7592 O.2     1  UNL1       -0.2748
     30 C          61.8498   85.9976    9.4254 C.3     1  UNL1        0.0758
     31 C          63.1334   85.9465    8.6510 C.3     1  UNL1        0.0215
     32 C          61.8990   85.2961    8.1005 C.3     1  UNL1        0.0215
     33 C          61.2627   85.7107   11.9399 C.3     1  UNL1        0.1201
     34 C          63.7633   82.6654   11.4676 C.ar    1  UNL1       -0.0194
     35 C          62.5889   83.5783   11.2737 C.ar    1  UNL1       -0.0067
     36 C          62.4370   84.7978   12.1337 C.ar    1  UNL1        0.0004
     37 C          63.4595   85.1045   13.1876 C.ar    1  UNL1        0.0343
     38 C          64.6338   84.1916   13.3814 C.ar    1  UNL1        0.1380
     39 C          64.7857   82.9721   12.5214 C.ar    1  UNL1        0.0326
     40 O          65.6563   84.4983   14.4353 O.3     1  UNL1       -0.4740
     41 C          65.4945   85.7075   15.3080 C.3     1  UNL1        0.2226
     42 C          64.3492   86.6489   15.0801 C.3     1  UNL1        0.1201
     43 N          63.4650   87.0454   16.2252 N.3     1  UNL1       -0.2672
     44 C          62.8557   85.9918   17.1019 C.3     1  UNL1        0.0898
     45 C          63.1901   88.4954   16.4934 C.3     1  UNL1        0.0898
     46 C          63.9152   81.4458   10.6076 C.3     1  UNL1        0.0290
     47 C          62.9368   80.3154   10.7297 C.3     1  UNL1        0.0367
     48 C          62.6768   79.4185    9.5559 C.3     1  UNL1        0.1426
     49 C          63.1265   77.0177   10.4412 C.3     1  UNL1        0.1741
     50 O          63.3922   78.1050    9.4426 O.3     1  UNL1       -0.3511
@<TRIPOS>BOND
     1    49    50    1
     2    50    48    1
     3    48    47    1
     4    47    46    1
     5    46    34    1
     6    34    35   ar
     7    35    36   ar
     8    36    33    1
     9    33    27    1
    10    27    28   am
    11    28    29    2
    12     1    28    1
    13     1     2    1
    14     2     3    1
    15     3     4    1
    16     4     5    1
    17     5     6    1
    18     6     8    1
    19     8     9   ar
    20     9    10   ar
    21    10    11   ar
    22    11    14    1
    23    14    15    1
    24    15    16    1
    25    16    17    1
    26    17    18    1
    27    18    19   ar
    28    19    20    1
    29    19    21   ar
    30    21    22   ar
    31    22    23    1
    32    22    24   ar
    33    24    25   ar
    34    25    26    1
    35    11    12   ar
    36    12    13   ar
    37    27    30    1
    38    30    31    1
    39    31    32    1
    40    36    37   ar
    41    37    38   ar
    42    38    40    1
    43    40    41    1
    44    41    42    1
    45    42    43    1
    46    43    44    1
    47    43    45    1
    48    38    39   ar
    49    39    34   ar
    50     6     1    1
    51    13     8   ar
    52    32    30    1
    53    25    18   ar
    54     3     7    1
@<TRIPOS>MOLECULE
*****
 50 54 0 0 0
SMALL
GASTEIGER

@<TRIPOS>ATOM
      1 C          64.0674   90.9667   13.6866 C.3     1  UNL1        0.0964
      2 C          64.5962   92.2557   13.1309 C.3     1  UNL1        0.0780
      3 N          65.9788   92.7152   13.4879 N.3     1  UNL1       -0.2970
      4 C          66.8325   91.8857   14.4006 C.3     1  UNL1        0.0689
      5 C          66.3037   90.5967   14.9563 C.3     1  UNL1        0.0220
      6 C          64.9212   90.1372   14.5993 C.3     1  UNL1        0.0337
      7 H          65.8805   93.6303   13.9276 H       1  UNL1        0.1233
      8 C          64.3924   88.8482   15.1550 C.ar    1  UNL1       -0.0217
      9 C          64.7259   87.5490   14.4833 C.ar    1  UNL1       -0.0012
     10 C          64.1971   86.2600   15.0390 C.ar    1  UNL1        0.0366
     11 C          63.3348   86.2701   16.2663 C.ar    1  UNL1        0.1387
     12 C          63.0013   87.5692   16.9380 C.ar    1  UNL1        0.0366
     13 C          63.5301   88.8582   16.3823 C.ar    1  UNL1       -0.0012
     14 O          62.8060   84.9811   16.8220 O.3     1  UNL1       -0.4714
     15 C          61.9523   84.0906   15.9685 C.3     1  UNL1        0.2525
     16 C          62.2931   83.8867   14.5221 C.3     1  UNL1        0.2525
     17 O          63.4265   82.9819   14.1390 O.3     1  UNL1       -0.4697
     18 C          63.2806   82.0494   12.9731 C.ar    1  UNL1        0.1596
     19 C          62.4805   80.7889   13.1165 C.ar    1  UNL1        0.0921
     20 CL         61.8261   80.4607   14.4258 Cl      1  UNL1       -0.0791
     21 C          62.3346   79.8564   11.9506 C.ar    1  UNL1        0.0103
     22 C          62.9889   80.1845   10.6414 C.ar    1  UNL1       -0.0200
     23 C          62.8431   79.2521    9.4755 C.3     1  UNL1        0.0311
     24 C          63.7891   81.4452   10.4980 C.ar    1  UNL1        0.0103
     25 C          63.9350   82.3776   11.6639 C.ar    1  UNL1        0.0921
     26 CL         64.7352   83.6383   11.5205 Cl      1  UNL1       -0.0791
     27 N          62.1975   90.6237   11.9158 N.am    1  UNL1       -0.2770
     28 C          62.6849   90.5072   13.3296 C.2     1  UNL1        0.2270
     29 O          61.7897   89.9312   14.3864 O.2     1  UNL1       -0.2748
     30 C          63.0927   91.1998   10.8590 C.3     1  UNL1        0.0758
     31 C          63.3683   91.5094    9.4174 C.3     1  UNL1        0.0215
     32 C          64.3676   91.8878   10.4701 C.3     1  UNL1        0.0215
     33 C          60.8150   90.1642   11.5588 C.3     1  UNL1        0.1201
     34 C          59.7365   88.4692    8.1362 C.ar    1  UNL1       -0.0194
     35 C          59.9307   89.5010    9.2076 C.ar    1  UNL1       -0.0067
     36 C          60.6208   89.1325   10.4874 C.ar    1  UNL1        0.0004
     37 C          61.1168   87.7323   10.6958 C.ar    1  UNL1        0.0343
     38 C          60.9227   86.7006    9.6245 C.ar    1  UNL1        0.1380
     39 C          60.2325   87.0690    8.3447 C.ar    1  UNL1        0.0326
     40 O          61.4187   85.3003    9.8329 O.3     1  UNL1       -0.4740
     41 C          62.6708   84.8385    9.1483 C.3     1  UNL1        0.2226
     42 C          62.9877   85.3166    7.7623 C.3     1  UNL1        0.1201
     43 N          62.2501   84.7487    6.5860 N.3     1  UNL1       -0.2672
     44 C          62.9849   84.4500    5.3130 C.3     1  UNL1        0.0898
     45 C          60.7776   84.4794    6.6829 C.3     1  UNL1        0.0898
     46 C          59.0464   88.8377    6.8564 C.3     1  UNL1        0.0290
     47 C          59.3582   90.1422    6.1848 C.3     1  UNL1        0.0367
     48 C          58.2604   90.9344    5.5388 C.3     1  UNL1        0.1426
     49 C          59.8136   92.3797    4.0393 C.3     1  UNL1        0.1741
     50 O          58.5718   92.2399    4.8690 O.3     1  UNL1       -0.3511
@<TRIPOS>BOND
     1    49    50    1
     2    50    48    1
     3    48    47    1
     4    47    46    1
     5    46    34    1
     6    34    35   ar
     7    35    36   ar
     8    36    33    1
     9    33    27    1
    10    27    28   am
    11    28    29    2
    12     1    28    1
    13     1     2    1
    14     2     3    1
    15     3     4    1
    16     4     5    1
    17     5     6    1
    18     6     8    1
    19     8     9   ar
    20     9    10   ar
    21    10    11   ar
    22    11    14    1
    23    14    15    1
    24    15    16    1
    25    16    17    1
    26    17    18    1
    27    18    19   ar
    28    19    20    1
    29    19    21   ar
    30    21    22   ar
    31    22    23    1
    32    22    24   ar
    33    24    25   ar
    34    25    26    1
    35    11    12   ar
    36    12    13   ar
    37    27    30    1
    38    30    31    1
    39    31    32    1
    40    36    37   ar
    41    37    38   ar
    42    38    40    1
    43    40    41    1
    44    41    42    1
    45    42    43    1
    46    43    44    1
    47    43    45    1
    48    38    39   ar
    49    39    34   ar
    50     6     1    1
    51    13     8   ar
    52    32    30    1
    53    25    18   ar
    54     3     7    1
@<TRIPOS>MOLECULE
*****
 50 54 0 0 0
SMALL
GASTEIGER

@<TRIPOS>ATOM
      1 C          60.7600   86.9465    8.9662 C.3     1  UNL1        0.0964
      2 C          59.9964   86.1220    7.9727 C.3     1  UNL1        0.0780
      3 N          58.9642   86.7685    7.0971 N.3     1  UNL1       -0.2970
      4 C          58.6957   88.2395    7.2150 C.3     1  UNL1        0.0689
      5 C          59.4593   89.0641    8.2085 C.3     1  UNL1        0.0220
      6 C          60.4915   88.4176    9.0841 C.3     1  UNL1        0.0337
      7 H          58.0813   86.2923    7.2819 H       1  UNL1        0.1233
      8 C          61.2551   89.2421   10.0775 C.ar    1  UNL1       -0.0217
      9 C          62.5207   89.9330    9.6638 C.ar    1  UNL1       -0.0012
     10 C          63.2844   90.7575   10.6572 C.ar    1  UNL1        0.0366
     11 C          62.7825   90.8912   12.0644 C.ar    1  UNL1        0.1387
     12 C          61.5170   90.2004   12.4782 C.ar    1  UNL1        0.0366
     13 C          60.7533   89.3758   11.4847 C.ar    1  UNL1       -0.0012
     14 O          63.5462   91.7157   13.0579 O.3     1  UNL1       -0.4714
     15 C          64.8279   91.1947   13.6375 C.3     1  UNL1        0.2525
     16 C          65.8103   92.1430   14.2583 C.3     1  UNL1        0.2525
     17 O          66.3470   93.2949   13.4614 O.3     1  UNL1       -0.4697
     18 C          66.9921   93.0497   12.1295 C.ar    1  UNL1        0.1596
     19 C          66.4982   93.7738   10.9123 C.ar    1  UNL1        0.0921
     20 CL         65.3592   94.7432   11.0269 Cl      1  UNL1       -0.0791
     21 C          67.1432   93.5286    9.5804 C.ar    1  UNL1        0.0103
     22 C          68.2822   92.5592    9.4659 C.ar    1  UNL1       -0.0200
     23 C          68.9272   92.3140    8.1341 C.3     1  UNL1        0.0311
     24 C          68.7761   91.8351   10.6832 C.ar    1  UNL1        0.0103
     25 C          68.1310   92.0803   12.0150 C.ar    1  UNL1        0.0921
     26 CL         68.6249   91.3562   13.2323 Cl      1  UNL1       -0.0791
     27 N          62.7344   85.2846    9.2662 N.am    1  UNL1       -0.2770
     28 C          61.7922   86.3000    9.8418 C.2     1  UNL1        0.2270
     29 O          61.8821   86.6689   11.2930 O.2     1  UNL1       -0.2748
     30 C          62.6444   84.9158    7.8151 C.3     1  UNL1        0.0758
     31 C          61.8438   84.4169    6.6488 C.3     1  UNL1        0.0215
     32 C          63.2890   84.7757    6.4680 C.3     1  UNL1        0.0215
     33 C          63.7665   84.6381   10.1418 C.3     1  UNL1        0.1201
     34 C          62.6734   83.9600   13.8962 C.ar    1  UNL1       -0.0194
     35 C          63.0929   84.6830   12.6506 C.ar    1  UNL1       -0.0067
     36 C          63.3471   83.9152   11.3874 C.ar    1  UNL1        0.0004
     37 C          63.1818   82.4244   11.3697 C.ar    1  UNL1        0.0343
     38 C          62.7623   81.7015   12.6152 C.ar    1  UNL1        0.1380
     39 C          62.5081   82.4693   13.8785 C.ar    1  UNL1        0.0326
     40 O          62.5970   80.2107   12.5975 O.3     1  UNL1       -0.4740
     41 C          61.6258   79.5526   13.5322 C.3     1  UNL1        0.2226
     42 C          60.6099   80.3799   14.2625 C.3     1  UNL1        0.1201
     43 N          59.1900   79.9067   14.3639 N.3     1  UNL1       -0.2672
     44 C          58.8988   78.4572   14.6167 C.3     1  UNL1        0.0898
     45 C          58.0614   80.8832   14.2125 C.3     1  UNL1        0.0898
     46 C          62.4192   84.7278   15.1595 C.3     1  UNL1        0.0290
     47 C          63.5401   85.4714   15.8236 C.3     1  UNL1        0.0367
     48 C          63.2825   86.2521   17.0783 C.3     1  UNL1        0.1426
     49 C          63.4554   88.5737   15.9250 C.3     1  UNL1        0.1741
     50 O          62.8788   87.6943   16.9947 O.3     1  UNL1       -0.3511
@<TRIPOS>BOND
     1    49    50    1
     2    50    48    1
     3    48    47    1
     4    47    46    1
     5    46    34    1
     6    34    35   ar
     7    35    36   ar
     8    36    33    1
     9    33    27    1
    10    27    28   am
    11    28    29    2
    12     1    28    1
    13     1     2    1
    14     2     3    1
    15     3     4    1
    16     4     5    1
    17     5     6    1
    18     6     8    1
    19     8     9   ar
    20     9    10   ar
    21    10    11   ar
    22    11    14    1
    23    14    15    1
    24    15    16    1
    25    16    17    1
    26    17    18    1
    27    18    19   ar
    28    19    20    1
    29    19    21   ar
    30    21    22   ar
    31    22    23    1
    32    22    24   ar
    33    24    25   ar
    34    25    26    1
    35    11    12   ar
    36    12    13   ar
    37    27    30    1
    38    30    31    1
    39    31    32    1
    40    36    37   ar
    41    37    38   ar
    42    38    40    1
    43    40    41    1
    44    41    42    1
    45    42    43    1
    46    43    44    1
    47    43    45    1
    48    38    39   ar
    49    39    34   ar
    50     6     1    1
    51    13     8   ar
    52    32    30    1
    53    25    18   ar
    54     3     7    1
