@<TRIPOS>MOLECULE
*****
 27 30 0 0 0
SMALL
GASTEIGER

@<TRIPOS>ATOM
      1 C          61.9968   89.2849   10.2825 C.ar    1  UNL1        0.0143
      2 C          62.6129   88.1933   11.1064 C.ar    1  UNL1        0.0970
      3 N          62.0181   86.8886   10.6662 N.ar    1  UNL1       -0.2080
      4 C          61.0345   87.1738    9.5702 C.ar    1  UNL1        0.0823
      5 C          60.1491   86.2762    8.7576 C.ar    1  UNL1        0.0189
      6 C          59.2506   86.8597    7.7078 C.ar    1  UNL1        0.0015
      7 C          59.2374   88.3408    7.4707 C.ar    1  UNL1        0.0001
      8 C          60.1228   89.2384    8.2833 C.ar    1  UNL1        0.0013
      9 C          61.0213   88.6549    9.3331 C.ar    1  UNL1        0.0163
     10 S          62.3489   85.5360   11.2240 S.O2    1  UNL1        0.0860
     11 O          61.7511   85.9329   12.5411 O.2     1  UNL1       -0.1476
     12 O          62.9468   85.1390    9.9068 O.2     1  UNL1       -0.1476
     13 C          62.6797   84.1833   11.7817 C.ar    1  UNL1        0.1278
     14 C          62.5864   83.9376   13.2584 C.ar    1  UNL1        0.0227
     15 C          62.9172   82.5850   13.8160 C.ar    1  UNL1        0.0310
     16 C          63.3415   81.4781   12.8969 C.ar    1  UNL1        0.1402
     17 F          63.6723   80.1255   13.4545 F       1  UNL1       -0.2042
     18 C          63.4348   81.7238   11.4201 C.ar    1  UNL1        0.0310
     19 C          63.1039   83.0765   10.8625 C.ar    1  UNL1        0.0227
     20 C          62.3025   90.7496   10.3893 C.3     1  UNL1        0.1008
     21 C          66.9027   92.6161   13.7590 C.3     1  UNL1        0.0897
     22 N          65.7527   92.1495   12.9166 N.3     1  UNL1       -0.2691
     23 C          64.6724   91.3044   13.5239 C.3     1  UNL1        0.0897
     24 C          63.5224   90.8377   12.6816 C.3     1  UNL1        0.0899
     25 N          63.4526   91.2162   11.2318 N.3     1  UNL1       -0.2665
     26 C          64.5328   92.0614   10.6244 C.3     1  UNL1        0.0899
     27 C          65.6829   92.5280   11.4668 C.3     1  UNL1        0.0897
@<TRIPOS>BOND
     1    21    22    1
     2    22    23    1
     3    23    24    1
     4    24    25    1
     5    25    20    1
     6    20     1    1
     7     1     2   ar
     8     2     3   ar
     9     3    10    1
    10    10    11    2
    11    10    12    2
    12    10    13    1
    13    13    14   ar
    14    14    15   ar
    15    15    16   ar
    16    16    17    1
    17    16    18   ar
    18    18    19   ar
    19     3     4   ar
    20     4     5   ar
    21     5     6   ar
    22     6     7   ar
    23     7     8   ar
    24     8     9   ar
    25    25    26    1
    26    26    27    1
    27    27    22    1
    28     9     1   ar
    29    19    13   ar
    30     9     4   ar
@<TRIPOS>MOLECULE
*****
 27 30 0 0 0
SMALL
GASTEIGER

@<TRIPOS>ATOM
      1 C          65.3772   92.2143   12.6258 C.ar    1  UNL1        0.0143
      2 C          64.6985   91.5970   11.4391 C.ar    1  UNL1        0.0970
      3 N          63.6826   90.6160   11.9447 N.ar    1  UNL1       -0.2080
      4 C          63.7334   90.6271   13.4438 C.ar    1  UNL1        0.0823
      5 C          62.9613   89.8653   14.4799 C.ar    1  UNL1        0.0189
      6 C          63.2366   90.0914   15.9370 C.ar    1  UNL1        0.0015
      7 C          64.2840   91.0792   16.3579 C.ar    1  UNL1        0.0001
      8 C          65.0561   91.8410   15.3218 C.ar    1  UNL1        0.0013
      9 C          64.7808   91.6149   13.8648 C.ar    1  UNL1        0.0163
     10 S          62.7751   89.7721   11.0996 S.O2    1  UNL1        0.0860
     11 O          62.3869   90.9842   10.3060 O.2     1  UNL1       -0.1476
     12 O          63.1633   88.5599   11.8932 O.2     1  UNL1       -0.1476
     13 C          61.8676   88.9281   10.2545 C.ar    1  UNL1        0.1278
     14 C          60.7875   89.5737    9.4381 C.ar    1  UNL1        0.0227
     15 C          59.8801   88.7297    8.5931 C.ar    1  UNL1        0.0310
     16 C          60.0528   87.2399    8.5643 C.ar    1  UNL1        0.1402
     17 F          59.1453   86.3960    7.7193 F       1  UNL1       -0.2042
     18 C          61.1328   86.5942    9.3807 C.ar    1  UNL1        0.0310
     19 C          62.0403   87.4383   10.2258 C.ar    1  UNL1        0.0227
     20 C          66.4620   93.2494   12.5814 C.3     1  UNL1        0.1008
     21 C          66.9742   96.8553    7.8132 C.3     1  UNL1        0.0897
     22 N          66.8461   95.9539    9.0053 N.3     1  UNL1       -0.2691
     23 C          67.3390   94.5391    8.9320 C.3     1  UNL1        0.0897
     24 C          67.2110   93.6376   10.1240 C.3     1  UNL1        0.0899
     25 N          66.5900   94.1509   11.3893 N.3     1  UNL1       -0.2665
     26 C          66.0971   95.5657   11.4625 C.3     1  UNL1        0.0899
     27 C          66.2252   96.4672   10.2705 C.3     1  UNL1        0.0897
@<TRIPOS>BOND
     1    21    22    1
     2    22    23    1
     3    23    24    1
     4    24    25    1
     5    25    20    1
     6    20     1    1
     7     1     2   ar
     8     2     3   ar
     9     3    10    1
    10    10    11    2
    11    10    12    2
    12    10    13    1
    13    13    14   ar
    14    14    15   ar
    15    15    16   ar
    16    16    17    1
    17    16    18   ar
    18    18    19   ar
    19     3     4   ar
    20     4     5   ar
    21     5     6   ar
    22     6     7   ar
    23     7     8   ar
    24     8     9   ar
    25    25    26    1
    26    26    27    1
    27    27    22    1
    28     9     1   ar
    29    19    13   ar
    30     9     4   ar
@<TRIPOS>MOLECULE
*****
 27 30 0 0 0
SMALL
GASTEIGER

@<TRIPOS>ATOM
      1 C          63.1344   89.2630   12.6778 C.ar    1  UNL1        0.0143
      2 C          63.5160   87.8338   12.9267 C.ar    1  UNL1        0.0970
      3 N          62.7227   86.9723   11.9894 N.ar    1  UNL1       -0.2080
      4 C          61.8509   87.8690   11.1613 C.ar    1  UNL1        0.0823
      5 C          60.8582   87.5793   10.0747 C.ar    1  UNL1        0.0189
      6 C          60.1200   88.7053    9.4136 C.ar    1  UNL1        0.0015
      7 C          60.3744   90.1210    9.8391 C.ar    1  UNL1        0.0001
      8 C          61.3671   90.4107   10.9256 C.ar    1  UNL1        0.0013
      9 C          62.1053   89.2847   11.5867 C.ar    1  UNL1        0.0163
     10 S          62.7895   85.4767   11.8966 S.O2    1  UNL1        0.0860
     11 O          62.7796   85.3833   13.3936 O.2     1  UNL1       -0.1476
     12 O          62.7994   85.5701   10.3995 O.2     1  UNL1       -0.1476
     13 C          62.8563   83.9810   11.8037 C.ar    1  UNL1        0.1278
     14 C          63.4111   83.3301   10.5714 C.ar    1  UNL1        0.0227
     15 C          63.4779   81.8346   10.4786 C.ar    1  UNL1        0.0310
     16 C          62.9899   80.9898   11.6180 C.ar    1  UNL1        0.1402
     17 F          63.0567   79.4942   11.5251 F       1  UNL1       -0.2042
     18 C          62.4351   81.6407   12.8503 C.ar    1  UNL1        0.0310
     19 C          62.3683   83.1363   12.9431 C.ar    1  UNL1        0.0227
     20 C          63.6853   90.4602   13.3942 C.3     1  UNL1        0.1008
     21 C          67.0327   94.4564   10.4234 C.3     1  UNL1        0.0897
     22 N          66.1958   93.4574   11.1661 N.3     1  UNL1       -0.2691
     23 C          66.4456   93.2055   12.6235 C.3     1  UNL1        0.0897
     24 C          65.6088   92.2065   13.3662 C.3     1  UNL1        0.0899
     25 N          64.5222   91.4593   12.6515 N.3     1  UNL1       -0.2665
     26 C          64.2724   91.7112   11.1940 C.3     1  UNL1        0.0899
     27 C          65.1091   92.7102   10.4513 C.3     1  UNL1        0.0897
@<TRIPOS>BOND
     1    21    22    1
     2    22    23    1
     3    23    24    1
     4    24    25    1
     5    25    20    1
     6    20     1    1
     7     1     2   ar
     8     2     3   ar
     9     3    10    1
    10    10    11    2
    11    10    12    2
    12    10    13    1
    13    13    14   ar
    14    14    15   ar
    15    15    16   ar
    16    16    17    1
    17    16    18   ar
    18    18    19   ar
    19     3     4   ar
    20     4     5   ar
    21     5     6   ar
    22     6     7   ar
    23     7     8   ar
    24     8     9   ar
    25    25    26    1
    26    26    27    1
    27    27    22    1
    28     9     1   ar
    29    19    13   ar
    30     9     4   ar
@<TRIPOS>MOLECULE
*****
 27 30 0 0 0
SMALL
GASTEIGER

@<TRIPOS>ATOM
      1 C          63.2956   89.7217   13.1076 C.ar    1  UNL1        0.0143
      2 C          62.7880   89.3907   11.7355 C.ar    1  UNL1        0.0970
      3 N          62.8415   87.9010   11.5684 N.ar    1  UNL1       -0.2080
      4 C          63.3822   87.3113   12.8372 C.ar    1  UNL1        0.0823
      5 C          63.6552   85.8952   13.2493 C.ar    1  UNL1        0.0189
      6 C          64.2089   85.6042   14.6126 C.ar    1  UNL1        0.0015
      7 C          64.4896   86.7295   15.5639 C.ar    1  UNL1        0.0001
      8 C          64.2165   88.1457   15.1519 C.ar    1  UNL1        0.0013
      9 C          63.6628   88.4366   13.7886 C.ar    1  UNL1        0.0163
     10 S          62.4271   87.1354   10.3469 S.O2    1  UNL1        0.0860
     11 O          62.4548   88.4018    9.5437 O.2     1  UNL1       -0.1476
     12 O          62.3994   85.8689   11.1502 O.2     1  UNL1       -0.1476
     13 C          62.0127   86.3696    9.1254 C.ar    1  UNL1        0.1278
     14 C          60.6060   86.4750    8.6155 C.ar    1  UNL1        0.0227
     15 C          60.1917   85.7092    7.3941 C.ar    1  UNL1        0.0310
     16 C          61.1841   84.8381    6.6825 C.ar    1  UNL1        0.1402
     17 F          60.7697   84.0724    5.4611 F       1  UNL1       -0.2042
     18 C          62.5908   84.7327    7.1924 C.ar    1  UNL1        0.0310
     19 C          63.0051   85.4985    8.4139 C.ar    1  UNL1        0.0227
     20 C          63.4150   91.0965   13.6956 C.3     1  UNL1        0.1008
     21 C          68.7822   93.1823   15.3819 C.3     1  UNL1        0.0897
     22 N          67.4404   92.6608   14.9604 N.3     1  UNL1       -0.2691
     23 C          67.1579   92.4029   13.5100 C.3     1  UNL1        0.0897
     24 C          65.8161   91.8815   13.0884 C.3     1  UNL1        0.0899
     25 N          64.7569   91.6180   14.1172 N.3     1  UNL1       -0.2665
     26 C          65.0394   91.8758   15.5676 C.3     1  UNL1        0.0899
     27 C          66.3811   92.3973   15.9893 C.3     1  UNL1        0.0897
@<TRIPOS>BOND
     1    21    22    1
     2    22    23    1
     3    23    24    1
     4    24    25    1
     5    25    20    1
     6    20     1    1
     7     1     2   ar
     8     2     3   ar
     9     3    10    1
    10    10    11    2
    11    10    12    2
    12    10    13    1
    13    13    14   ar
    14    14    15   ar
    15    15    16   ar
    16    16    17    1
    17    16    18   ar
    18    18    19   ar
    19     3     4   ar
    20     4     5   ar
    21     5     6   ar
    22     6     7   ar
    23     7     8   ar
    24     8     9   ar
    25    25    26    1
    26    26    27    1
    27    27    22    1
    28     9     1   ar
    29    19    13   ar
    30     9     4   ar
@<TRIPOS>MOLECULE
*****
 27 30 0 0 0
SMALL
GASTEIGER

@<TRIPOS>ATOM
      1 C          63.6254   86.3120   13.4435 C.ar    1  UNL1        0.0143
      2 C          62.7389   86.1899   12.2397 C.ar    1  UNL1        0.0970
      3 N          62.4685   87.5712   11.7212 N.ar    1  UNL1       -0.2080
      4 C          63.1877   88.5470   12.6047 C.ar    1  UNL1        0.0823
      5 C          63.2840   90.0437   12.5774 C.ar    1  UNL1        0.0189
      6 C          64.0953   90.7621   13.6145 C.ar    1  UNL1        0.0015
      7 C          64.8103   89.9838   14.6789 C.ar    1  UNL1        0.0001
      8 C          64.7141   88.4872   14.7062 C.ar    1  UNL1        0.0013
      9 C          63.9028   87.7688   13.6691 C.ar    1  UNL1        0.0163
     10 S          61.6265   87.9162   10.5287 S.O2    1  UNL1        0.0860
     11 O          62.7681   87.5658    9.6212 O.2     1  UNL1       -0.1476
     12 O          60.4847   88.2667   11.4363 O.2     1  UNL1       -0.1476
     13 C          60.7844   88.2613    9.3363 C.ar    1  UNL1        0.1278
     14 C          60.6780   89.6863    8.8802 C.ar    1  UNL1        0.0227
     15 C          59.8360   90.0312    7.6878 C.ar    1  UNL1        0.0310
     16 C          59.1003   88.9511    6.9514 C.ar    1  UNL1        0.1402
     17 F          58.2582   89.2961    5.7590 F       1  UNL1       -0.2042
     18 C          59.2067   87.5261    7.4074 C.ar    1  UNL1        0.0310
     19 C          60.0488   87.1812    8.5999 C.ar    1  UNL1        0.0227
     20 C          64.1436   85.1767   14.2757 C.3     1  UNL1        0.1008
     21 C          62.2193   79.5862   13.2542 C.3     1  UNL1        0.0897
     22 N          62.7003   80.9838   13.5096 N.3     1  UNL1       -0.2691
     23 C          63.9311   81.4914   12.8185 C.3     1  UNL1        0.0897
     24 C          64.4122   82.8889   13.0738 C.3     1  UNL1        0.0899
     25 N          63.6625   83.7790   14.0203 N.3     1  UNL1       -0.2665
     26 C          62.4317   83.2714   14.7114 C.3     1  UNL1        0.0899
     27 C          61.9506   81.8738   14.4561 C.3     1  UNL1        0.0897
@<TRIPOS>BOND
     1    21    22    1
     2    22    23    1
     3    23    24    1
     4    24    25    1
     5    25    20    1
     6    20     1    1
     7     1     2   ar
     8     2     3   ar
     9     3    10    1
    10    10    11    2
    11    10    12    2
    12    10    13    1
    13    13    14   ar
    14    14    15   ar
    15    15    16   ar
    16    16    17    1
    17    16    18   ar
    18    18    19   ar
    19     3     4   ar
    20     4     5   ar
    21     5     6   ar
    22     6     7   ar
    23     7     8   ar
    24     8     9   ar
    25    25    26    1
    26    26    27    1
    27    27    22    1
    28     9     1   ar
    29    19    13   ar
    30     9     4   ar
@<TRIPOS>MOLECULE
*****
 27 30 0 0 0
SMALL
GASTEIGER

@<TRIPOS>ATOM
      1 C          63.8597   88.9851   14.7606 C.ar    1  UNL1        0.0143
      2 C          63.9600   88.0661   13.5793 C.ar    1  UNL1        0.0970
      3 N          63.6163   86.6805   14.0395 N.ar    1  UNL1       -0.2080
      4 C          63.3035   86.7430   15.5052 C.ar    1  UNL1        0.0823
      5 C          62.9011   85.6871   16.4916 C.ar    1  UNL1        0.0189
      6 C          62.6492   86.0554   17.9236 C.ar    1  UNL1        0.0015
      7 C          62.7996   87.4798   18.3693 C.ar    1  UNL1        0.0001
      8 C          63.2020   88.5357   17.3829 C.ar    1  UNL1        0.0013
      9 C          63.4539   88.1674   15.9508 C.ar    1  UNL1        0.0163
     10 S          63.5899   85.4485   13.1842 S.O2    1  UNL1        0.0860
     11 O          62.5014   86.0526   12.3476 O.2     1  UNL1       -0.1476
     12 O          64.6785   84.8444   14.0208 O.2     1  UNL1       -0.1476
     13 C          63.5636   84.2165   12.3289 C.ar    1  UNL1        0.1278
     14 C          63.8988   84.3090   10.8698 C.ar    1  UNL1        0.0227
     15 C          63.8725   83.0770   10.0146 C.ar    1  UNL1        0.0310
     16 C          63.5110   81.7523   10.6185 C.ar    1  UNL1        0.1402
     17 F          63.4847   80.5204    9.7633 F       1  UNL1       -0.2042
     18 C          63.1758   81.6598   12.0776 C.ar    1  UNL1        0.0310
     19 C          63.2022   82.8919   12.9328 C.ar    1  UNL1        0.0227
     20 C          64.1195   90.4624   14.7530 C.3     1  UNL1        0.1008
     21 C          66.8462   93.0047   10.0517 C.3     1  UNL1        0.0897
     22 N          66.1646   92.3691   11.2270 N.3     1  UNL1       -0.2691
     23 C          64.7365   91.9241   11.1153 C.3     1  UNL1        0.0897
     24 C          64.0547   91.2886   12.2905 C.3     1  UNL1        0.0899
     25 N          64.8012   91.0980   13.5776 N.3     1  UNL1       -0.2665
     26 C          66.2293   91.5430   13.6893 C.3     1  UNL1        0.0899
     27 C          66.9110   92.1785   12.5140 C.3     1  UNL1        0.0897
@<TRIPOS>BOND
     1    21    22    1
     2    22    23    1
     3    23    24    1
     4    24    25    1
     5    25    20    1
     6    20     1    1
     7     1     2   ar
     8     2     3   ar
     9     3    10    1
    10    10    11    2
    11    10    12    2
    12    10    13    1
    13    13    14   ar
    14    14    15   ar
    15    15    16   ar
    16    16    17    1
    17    16    18   ar
    18    18    19   ar
    19     3     4   ar
    20     4     5   ar
    21     5     6   ar
    22     6     7   ar
    23     7     8   ar
    24     8     9   ar
    25    25    26    1
    26    26    27    1
    27    27    22    1
    28     9     1   ar
    29    19    13   ar
    30     9     4   ar
@<TRIPOS>MOLECULE
*****
 27 30 0 0 0
SMALL
GASTEIGER

@<TRIPOS>ATOM
      1 C          63.1667   84.5938   12.9437 C.ar    1  UNL1        0.0143
      2 C          62.3100   84.8235   11.7340 C.ar    1  UNL1        0.0970
      3 N          62.2186   86.3031   11.5051 N.ar    1  UNL1       -0.2080
      4 C          63.0187   86.9878   12.5732 C.ar    1  UNL1        0.0823
      5 C          63.2895   88.4367   12.8511 C.ar    1  UNL1        0.0189
      6 C          64.1462   88.8292   14.0181 C.ar    1  UNL1        0.0015
      7 C          64.7322   87.7728   14.9072 C.ar    1  UNL1        0.0001
      8 C          64.4614   86.3238   14.6293 C.ar    1  UNL1        0.0013
      9 C          63.6047   85.9314   13.4623 C.ar    1  UNL1        0.0163
     10 S          61.4601   86.9794   10.4017 S.O2    1  UNL1        0.0860
     11 O          60.4802   87.5145   11.4032 O.2     1  UNL1       -0.1476
     12 O          62.4401   86.4442    9.4000 O.2     1  UNL1       -0.1476
     13 C          60.7017   87.6556    9.2982 C.ar    1  UNL1        0.1278
     14 C          59.8556   86.8439    8.3627 C.ar    1  UNL1        0.0227
     15 C          59.0973   87.5201    7.2593 C.ar    1  UNL1        0.0310
     16 C          59.1850   89.0082    7.0913 C.ar    1  UNL1        0.1402
     17 F          58.4267   89.6843    5.9879 F       1  UNL1       -0.2042
     18 C          60.0312   89.8198    8.0268 C.ar    1  UNL1        0.0310
     19 C          60.7895   89.1436    9.1302 C.ar    1  UNL1        0.0227
     20 C          63.5228   83.2605   13.5315 C.3     1  UNL1        0.1008
     21 C          62.6089   78.2458   10.3664 C.3     1  UNL1        0.0897
     22 N          62.8374   79.4995   11.1577 N.3     1  UNL1       -0.2691
     23 C          62.5917   79.5077   12.6374 C.3     1  UNL1        0.0897
     24 C          62.8201   80.7613   13.4287 C.3     1  UNL1        0.0899
     25 N          63.2943   82.0068   12.7402 N.3     1  UNL1       -0.2665
     26 C          63.5401   81.9985   11.2605 C.3     1  UNL1        0.0899
     27 C          63.3116   80.7449   10.4692 C.3     1  UNL1        0.0897
@<TRIPOS>BOND
     1    21    22    1
     2    22    23    1
     3    23    24    1
     4    24    25    1
     5    25    20    1
     6    20     1    1
     7     1     2   ar
     8     2     3   ar
     9     3    10    1
    10    10    11    2
    11    10    12    2
    12    10    13    1
    13    13    14   ar
    14    14    15   ar
    15    15    16   ar
    16    16    17    1
    17    16    18   ar
    18    18    19   ar
    19     3     4   ar
    20     4     5   ar
    21     5     6   ar
    22     6     7   ar
    23     7     8   ar
    24     8     9   ar
    25    25    26    1
    26    26    27    1
    27    27    22    1
    28     9     1   ar
    29    19    13   ar
    30     9     4   ar
@<TRIPOS>MOLECULE
*****
 27 30 0 0 0
SMALL
GASTEIGER

@<TRIPOS>ATOM
      1 C          63.5625   89.3463   13.2141 C.ar    1  UNL1        0.0143
      2 C          63.0633   89.0934   11.8224 C.ar    1  UNL1        0.0970
      3 N          62.9570   87.6096   11.6306 N.ar    1  UNL1       -0.2080
      4 C          63.3905   86.9453   12.9038 C.ar    1  UNL1        0.0823
      5 C          63.4928   85.5018   13.2983 C.ar    1  UNL1        0.0189
      6 C          63.9694   85.1316   14.6716 C.ar    1  UNL1        0.0015
      7 C          64.3436   86.2050   15.6502 C.ar    1  UNL1        0.0001
      8 C          64.2413   87.6485   15.2557 C.ar    1  UNL1        0.0013
      9 C          63.7648   88.0187   13.8824 C.ar    1  UNL1        0.0163
     10 S          62.4977   86.9123   10.3845 S.O2    1  UNL1        0.0860
     11 O          62.6598   85.5863   11.0666 O.2     1  UNL1       -0.1476
     12 O          62.3356   88.2383    9.7023 O.2     1  UNL1       -0.1476
     13 C          62.0384   86.2151    9.1382 C.ar    1  UNL1        0.1278
     14 C          60.6155   86.3512    8.6836 C.ar    1  UNL1        0.0227
     15 C          60.1563   85.6540    7.4375 C.ar    1  UNL1        0.0310
     16 C          61.1201   84.8206    6.6458 C.ar    1  UNL1        0.1402
     17 F          60.6608   84.1235    5.3997 F       1  UNL1       -0.2042
     18 C          62.5431   84.6845    7.1004 C.ar    1  UNL1        0.0310
     19 C          63.0022   85.3817    8.3466 C.ar    1  UNL1        0.0227
     20 C          63.8152   90.6907   13.8295 C.3     1  UNL1        0.1008
     21 C          66.9101   94.8430   10.7997 C.3     1  UNL1        0.0897
     22 N          66.1364   93.8049   11.5571 N.3     1  UNL1       -0.2691
     23 C          66.4000   93.5908   13.0181 C.3     1  UNL1        0.0897
     24 C          65.6264   92.5527   13.7756 C.3     1  UNL1        0.0899
     25 N          64.5890   91.7288   13.0720 N.3     1  UNL1       -0.2665
     26 C          64.3254   91.9430   11.6110 C.3     1  UNL1        0.0899
     27 C          65.0990   92.9810   10.8535 C.3     1  UNL1        0.0897
@<TRIPOS>BOND
     1    21    22    1
     2    22    23    1
     3    23    24    1
     4    24    25    1
     5    25    20    1
     6    20     1    1
     7     1     2   ar
     8     2     3   ar
     9     3    10    1
    10    10    11    2
    11    10    12    2
    12    10    13    1
    13    13    14   ar
    14    14    15   ar
    15    15    16   ar
    16    16    17    1
    17    16    18   ar
    18    18    19   ar
    19     3     4   ar
    20     4     5   ar
    21     5     6   ar
    22     6     7   ar
    23     7     8   ar
    24     8     9   ar
    25    25    26    1
    26    26    27    1
    27    27    22    1
    28     9     1   ar
    29    19    13   ar
    30     9     4   ar
@<TRIPOS>MOLECULE
*****
 27 30 0 0 0
SMALL
GASTEIGER

@<TRIPOS>ATOM
      1 C          61.9753   88.0733   11.3588 C.ar    1  UNL1        0.0143
      2 C          62.6312   89.3688   11.7349 C.ar    1  UNL1        0.0970
      3 N          63.6237   89.0868   12.8236 N.ar    1  UNL1       -0.2080
      4 C          63.5813   87.6170   13.1203 C.ar    1  UNL1        0.0823
      5 C          64.3387   86.7682   14.0979 C.ar    1  UNL1        0.0189
      6 C          64.0773   85.2929   14.1702 C.ar    1  UNL1        0.0015
      7 C          63.0584   84.6665   13.2649 C.ar    1  UNL1        0.0001
      8 C          62.3010   85.5154   12.2873 C.ar    1  UNL1        0.0013
      9 C          62.5624   86.9906   12.2150 C.ar    1  UNL1        0.0163
     10 S          64.5042   90.0971   13.4973 S.O2    1  UNL1        0.0860
     11 O          64.6753   89.1701   14.6640 O.2     1  UNL1       -0.1476
     12 O          64.3331   91.0242   12.3306 O.2     1  UNL1       -0.1476
     13 C          65.3847   91.1076   14.1710 C.ar    1  UNL1        0.1278
     14 C          65.0521   91.5904   15.5517 C.ar    1  UNL1        0.0227
     15 C          65.9325   92.6008   16.2253 C.ar    1  UNL1        0.0310
     16 C          67.1457   93.1285   15.5182 C.ar    1  UNL1        0.1402
     17 F          68.0261   94.1389   16.1919 F       1  UNL1       -0.2042
     18 C          67.4783   92.6457   14.1375 C.ar    1  UNL1        0.0310
     19 C          66.5977   91.6353   13.4639 C.ar    1  UNL1        0.0227
     20 C          60.9178   87.8921   10.3104 C.3     1  UNL1        0.1008
     21 C          61.8152   84.0703    5.7730 C.3     1  UNL1        0.0897
     22 N          61.5908   85.0258    6.9073 N.3     1  UNL1       -0.2691
     23 C          62.7242   85.3822    7.8230 C.3     1  UNL1        0.0897
     24 C          62.4999   86.3376    8.9574 C.3     1  UNL1        0.0899
     25 N          61.1422   86.9366    9.1760 N.3     1  UNL1       -0.2665
     26 C          60.0088   86.5802    8.2603 C.3     1  UNL1        0.0899
     27 C          60.2331   85.6248    7.1260 C.3     1  UNL1        0.0897
@<TRIPOS>BOND
     1    21    22    1
     2    22    23    1
     3    23    24    1
     4    24    25    1
     5    25    20    1
     6    20     1    1
     7     1     2   ar
     8     2     3   ar
     9     3    10    1
    10    10    11    2
    11    10    12    2
    12    10    13    1
    13    13    14   ar
    14    14    15   ar
    15    15    16   ar
    16    16    17    1
    17    16    18   ar
    18    18    19   ar
    19     3     4   ar
    20     4     5   ar
    21     5     6   ar
    22     6     7   ar
    23     7     8   ar
    24     8     9   ar
    25    25    26    1
    26    26    27    1
    27    27    22    1
    28     9     1   ar
    29    19    13   ar
    30     9     4   ar
