@<TRIPOS>MOLECULE
*****
 36 39 0 0 0
SMALL
GASTEIGER

@<TRIPOS>ATOM
      1 C          63.4413   87.8354   12.7317 C.3     1  UNL1        0.0341
      2 C          62.5496   87.4237   11.5979 C.ar    1  UNL1        0.0141
      3 C          62.2370   85.9732   11.3782 C.ar    1  UNL1        0.1277
      4 N          61.3454   85.5615   10.2444 N.ar    1  UNL1       -0.2310
      5 C          60.7663   86.6003    9.3303 C.ar    1  UNL1        0.0828
      6 C          59.8746   86.1886    8.1966 C.ar    1  UNL1        0.0197
      7 C          59.2956   87.2274    7.2825 C.ar    1  UNL1        0.0082
      8 C          59.6082   88.6780    7.5022 C.ar    1  UNL1        0.0347
      9 BR         59.0292   89.7168    6.5881 Br      1  UNL1       -0.0490
     10 C          60.4999   89.0897    8.6360 C.ar    1  UNL1        0.0083
     11 C          61.0789   88.0508    9.5500 C.ar    1  UNL1        0.0223
     12 C          61.9706   88.4625   10.6838 C.ar    1  UNL1        0.0535
     13 N          62.8161   84.9343   12.2923 N.pl3   1  UNL1       -0.2935
     14 C          63.8208   83.9511   11.7692 C.3     1  UNL1        0.0921
     15 C          64.3998   82.9123   12.6833 C.3     1  UNL1        0.0215
     16 C          63.9741   82.8568   14.1205 C.3     1  UNL1        0.0035
     17 C          62.9694   83.8400   14.6437 C.3     1  UNL1        0.0215
     18 C          62.3904   84.8788   13.7296 C.3     1  UNL1        0.0921
     19 C          62.2832   89.9130   10.9035 C.2     1  UNL1        0.2457
     20 O          61.2922   90.7965   11.6016 O.2     1  UNL1       -0.2702
     21 N          63.5869   90.4801   10.4251 N.am    1  UNL1       -0.3005
     22 H          64.2374   89.9003    9.9669 H       1  UNL1        0.1497
     23 C          63.8996   91.9306   10.6448 C.3     1  UNL1        0.0940
     24 C          65.1849   92.3288   11.3076 C.3     1  UNL1        0.0431
     25 C          66.3189   92.8637   10.4843 C.ar    1  UNL1       -0.0103
     26 C          67.3924   91.9375    9.9947 C.ar    1  UNL1       -0.0034
     27 C          68.5264   92.4726    9.1714 C.ar    1  UNL1       -0.0003
     28 C          68.5870   93.9337    8.8378 C.ar    1  UNL1        0.0008
     29 C          67.5135   94.8599    9.3275 C.ar    1  UNL1        0.0111
     30 C          66.3795   94.3250   10.1507 C.ar    1  UNL1        0.0537
     31 CL         65.3060   95.2512   10.6404 Cl      1  UNL1       -0.0826
     32 C          65.3362   92.1920   12.7937 C.3     1  UNL1        0.0120
     33 C          66.4665   92.8811   13.4990 C.3     1  UNL1        0.0421
     34 C          67.6547   92.0911   13.9616 C.2     1  UNL1        0.0503
     35 O          68.8347   91.9102   13.0534 O.co2   1  UNL1       -0.5492
     36 O          67.6630   91.4820   15.3324 O.co2   1  UNL1       -0.5492
@<TRIPOS>UNITY_ATOM_ATTR
35 1
charge -1
@<TRIPOS>BOND
     1     1     2    1
     2     2     3   ar
     3     3    13    1
     4    13    14    1
     5    14    15    1
     6    15    16    1
     7    16    17    1
     8    17    18    1
     9     3     4   ar
    10     4     5   ar
    11     5     6   ar
    12     6     7   ar
    13     7     8   ar
    14     8     9    1
    15     8    10   ar
    16    10    11   ar
    17    11    12   ar
    18    12    19    1
    19    19    20    2
    20    19    21   am
    21    21    23    1
    22    23    24    1
    23    24    32    1
    24    32    33    1
    25    33    34    1
    26    34    35   ar
    27    34    36   ar
    28    24    25    1
    29    25    26   ar
    30    26    27   ar
    31    27    28   ar
    32    28    29   ar
    33    29    30   ar
    34    30    31    1
    35    12     2   ar
    36    30    25   ar
    37    18    13    1
    38    11     5   ar
    39    21    22    1
@<TRIPOS>MOLECULE
*****
 36 39 0 0 0
SMALL
GASTEIGER

@<TRIPOS>ATOM
      1 C          63.7741   91.6738    9.7472 C.3     1  UNL1        0.0341
      2 C          64.1624   91.7051   11.1958 C.ar    1  UNL1        0.0141
      3 C          65.2621   92.6146   11.6580 C.ar    1  UNL1        0.1277
      4 N          65.6504   92.6459   13.1065 N.ar    1  UNL1       -0.2310
      5 C          64.9390   91.7678   14.0929 C.ar    1  UNL1        0.0828
      6 C          65.3273   91.7991   15.5414 C.ar    1  UNL1        0.0197
      7 C          64.6160   90.9210   16.5277 C.ar    1  UNL1        0.0082
      8 C          63.5163   90.0115   16.0655 C.ar    1  UNL1        0.0347
      9 BR         62.8050   89.1333   17.0518 Br      1  UNL1       -0.0490
     10 C          63.1280   89.9802   14.6170 C.ar    1  UNL1        0.0083
     11 C          63.8394   90.8583   13.6307 C.ar    1  UNL1        0.0223
     12 C          63.4510   90.8270   12.1821 C.ar    1  UNL1        0.0535
     13 N          65.9734   93.4928   10.6716 N.pl3   1  UNL1       -0.2935
     14 C          67.1456   92.9601    9.9022 C.3     1  UNL1        0.0921
     15 C          67.8569   93.8382    8.9158 C.3     1  UNL1        0.0215
     16 C          67.3960   95.2491    8.6990 C.3     1  UNL1        0.0035
     17 C          66.2237   95.7818    9.4684 C.3     1  UNL1        0.0215
     18 C          65.5125   94.9036   10.4547 C.3     1  UNL1        0.0921
     19 C          62.3514   89.9175   11.7199 C.2     1  UNL1        0.2457
     20 O          61.0669   90.4957   11.2044 O.2     1  UNL1       -0.2702
     21 N          62.5363   88.4299   11.7732 N.am    1  UNL1       -0.3005
     22 H          63.3794   88.0504   12.1115 H       1  UNL1        0.1497
     23 C          61.4366   87.5204   11.3110 C.3     1  UNL1        0.0940
     24 C          61.7110   86.4855   10.2605 C.3     1  UNL1        0.0431
     25 C          62.5145   85.2656   10.6013 C.ar    1  UNL1       -0.0103
     26 C          62.5627   84.7705   12.0164 C.ar    1  UNL1       -0.0034
     27 C          63.3662   83.5505   12.3572 C.ar    1  UNL1       -0.0003
     28 C          64.1215   82.8257   11.2829 C.ar    1  UNL1        0.0008
     29 C          64.0733   83.3209    9.8678 C.ar    1  UNL1        0.0111
     30 C          63.2699   84.5408    9.5270 C.ar    1  UNL1        0.0537
     31 CL         63.2217   85.0359    8.1119 Cl      1  UNL1       -0.0826
     32 C          61.1820   86.6705    8.8691 C.3     1  UNL1        0.0120
     33 C          60.5555   87.9744    8.4721 C.3     1  UNL1        0.0421
     34 C          59.3070   87.9842    7.6409 C.2     1  UNL1        0.0503
     35 O          59.0318   89.1314    6.7145 O.co2   1  UNL1       -0.5492
     36 O          58.3336   86.8469    7.7360 O.co2   1  UNL1       -0.5492
@<TRIPOS>UNITY_ATOM_ATTR
35 1
charge -1
@<TRIPOS>BOND
     1     1     2    1
     2     2     3   ar
     3     3    13    1
     4    13    14    1
     5    14    15    1
     6    15    16    1
     7    16    17    1
     8    17    18    1
     9     3     4   ar
    10     4     5   ar
    11     5     6   ar
    12     6     7   ar
    13     7     8   ar
    14     8     9    1
    15     8    10   ar
    16    10    11   ar
    17    11    12   ar
    18    12    19    1
    19    19    20    2
    20    19    21   am
    21    21    23    1
    22    23    24    1
    23    24    32    1
    24    32    33    1
    25    33    34    1
    26    34    35   ar
    27    34    36   ar
    28    24    25    1
    29    25    26   ar
    30    26    27   ar
    31    27    28   ar
    32    28    29   ar
    33    29    30   ar
    34    30    31    1
    35    12     2   ar
    36    30    25   ar
    37    18    13    1
    38    11     5   ar
    39    21    22    1
@<TRIPOS>MOLECULE
*****
 36 39 0 0 0
SMALL
GASTEIGER

@<TRIPOS>ATOM
      1 C          63.9086   91.9832    9.6886 C.3     1  UNL1        0.0341
      2 C          64.2735   91.9302   11.1426 C.ar    1  UNL1        0.0141
      3 C          65.3867   92.7871   11.6683 C.ar    1  UNL1        0.1277
      4 N          65.7515   92.7341   13.1222 N.ar    1  UNL1       -0.2310
      5 C          65.0031   91.8241   14.0506 C.ar    1  UNL1        0.0828
      6 C          65.3680   91.7711   15.5046 C.ar    1  UNL1        0.0197
      7 C          64.6196   90.8611   16.4329 C.ar    1  UNL1        0.0082
      8 C          63.5063   90.0041   15.9072 C.ar    1  UNL1        0.0347
      9 BR         62.7579   89.0941   16.8356 Br      1  UNL1       -0.0490
     10 C          63.1415   90.0572   14.4533 C.ar    1  UNL1        0.0083
     11 C          63.8899   90.9671   13.5250 C.ar    1  UNL1        0.0223
     12 C          63.5251   91.0202   12.0709 C.ar    1  UNL1        0.0535
     13 N          66.1351   93.6971   10.7399 N.pl3   1  UNL1       -0.2935
     14 C          65.7593   95.1462   10.6455 C.3     1  UNL1        0.0921
     15 C          66.5077   96.0561    9.7171 C.3     1  UNL1        0.0215
     16 C          67.6319   95.5170    8.8832 C.3     1  UNL1        0.0035
     17 C          68.0077   94.0679    8.9776 C.3     1  UNL1        0.0215
     18 C          67.2593   93.1580    9.9059 C.3     1  UNL1        0.0921
     19 C          62.4118   90.1632   11.5453 C.2     1  UNL1        0.2457
     20 O          61.0829   90.7773   11.2185 O.2     1  UNL1       -0.2702
     21 N          62.6275   88.6921   11.3464 N.am    1  UNL1       -0.3005
     22 H          63.4998   88.2891   11.5609 H       1  UNL1        0.1497
     23 C          61.5143   87.8352   10.8208 C.3     1  UNL1        0.0940
     24 C          61.7506   86.3778   10.5560 C.3     1  UNL1        0.0431
     25 C          61.8004   85.8703    9.1453 C.ar    1  UNL1       -0.0103
     26 C          63.0348   85.1859    8.6375 C.ar    1  UNL1       -0.0034
     27 C          63.0844   84.6784    7.2268 C.ar    1  UNL1       -0.0003
     28 C          61.8998   84.8553    6.3240 C.ar    1  UNL1        0.0008
     29 C          60.6653   85.5397    6.8318 C.ar    1  UNL1        0.0111
     30 C          60.6156   86.0472    8.2424 C.ar    1  UNL1        0.0537
     31 CL         59.3812   86.7316    8.7502 Cl      1  UNL1       -0.0826
     32 C          61.9372   85.4279   11.7018 C.3     1  UNL1        0.0120
     33 C          63.1338   85.5583   12.5968 C.3     1  UNL1        0.0421
     34 C          63.2328   84.7284   13.8424 C.2     1  UNL1        0.0503
     35 O          63.1431   83.2336   13.7568 O.co2   1  UNL1       -0.5492
     36 O          63.4213   85.3935   15.1737 O.co2   1  UNL1       -0.5492
@<TRIPOS>UNITY_ATOM_ATTR
35 1
charge -1
@<TRIPOS>BOND
     1     1     2    1
     2     2     3   ar
     3     3    13    1
     4    13    14    1
     5    14    15    1
     6    15    16    1
     7    16    17    1
     8    17    18    1
     9     3     4   ar
    10     4     5   ar
    11     5     6   ar
    12     6     7   ar
    13     7     8   ar
    14     8     9    1
    15     8    10   ar
    16    10    11   ar
    17    11    12   ar
    18    12    19    1
    19    19    20    2
    20    19    21   am
    21    21    23    1
    22    23    24    1
    23    24    32    1
    24    32    33    1
    25    33    34    1
    26    34    35   ar
    27    34    36   ar
    28    24    25    1
    29    25    26   ar
    30    26    27   ar
    31    27    28   ar
    32    28    29   ar
    33    29    30   ar
    34    30    31    1
    35    12     2   ar
    36    30    25   ar
    37    18    13    1
    38    11     5   ar
    39    21    22    1
@<TRIPOS>MOLECULE
*****
 36 39 0 0 0
SMALL
GASTEIGER

@<TRIPOS>ATOM
      1 C          63.2482   87.2497   12.7407 C.3     1  UNL1        0.0341
      2 C          62.4273   86.9697   11.5168 C.ar    1  UNL1        0.0141
      3 C          62.1990   85.5547   11.0744 C.ar    1  UNL1        0.1277
      4 N          61.3781   85.2747    9.8506 N.ar    1  UNL1       -0.2310
      5 C          60.7856   86.4098    9.0691 C.ar    1  UNL1        0.0828
      6 C          59.9647   86.1298    7.8453 C.ar    1  UNL1        0.0197
      7 C          59.3723   87.2648    7.0638 C.ar    1  UNL1        0.0082
      8 C          59.6007   88.6798    7.5062 C.ar    1  UNL1        0.0347
      9 BR         59.0081   89.8148    6.7246 Br      1  UNL1       -0.0490
     10 C          60.4215   88.9597    8.7300 C.ar    1  UNL1        0.0083
     11 C          61.0140   87.8248    9.5114 C.ar    1  UNL1        0.0223
     12 C          61.8349   88.1047   10.7353 C.ar    1  UNL1        0.0535
     13 N          62.7915   84.4197   11.8560 N.pl3   1  UNL1       -0.2935
     14 C          63.7840   83.5005   11.2080 C.3     1  UNL1        0.0921
     15 C          64.3764   82.3655   11.9895 C.3     1  UNL1        0.0215
     16 C          63.9764   82.1498   13.4190 C.3     1  UNL1        0.0035
     17 C          62.9839   83.0691   14.0670 C.3     1  UNL1        0.0215
     18 C          62.3915   84.2040   13.2855 C.3     1  UNL1        0.0921
     19 C          62.0633   89.5197   11.1777 C.2     1  UNL1        0.2457
     20 O          60.9554   90.2880   11.8351 O.2     1  UNL1       -0.2702
     21 N          63.3996   90.1663   10.9626 N.am    1  UNL1       -0.3005
     22 H          64.1267   89.6620   10.5311 H       1  UNL1        0.1497
     23 C          63.6280   91.5813   11.4049 C.3     1  UNL1        0.0940
     24 C          65.0247   92.1176   11.5114 C.3     1  UNL1        0.0431
     25 C          65.6098   92.4240   12.8582 C.ar    1  UNL1       -0.0103
     26 C          66.3521   93.7087   13.0787 C.ar    1  UNL1       -0.0034
     27 C          66.9371   94.0151   14.4256 C.ar    1  UNL1       -0.0003
     28 C          66.7798   93.0369   15.5518 C.ar    1  UNL1        0.0008
     29 C          66.0375   91.7522   15.3312 C.ar    1  UNL1        0.0111
     30 C          65.4525   91.4458   13.9844 C.ar    1  UNL1        0.0537
     31 CL         64.7102   90.1611   13.7638 Cl      1  UNL1       -0.0826
     32 C          65.8364   92.3475   10.2711 C.3     1  UNL1        0.0120
     33 C          67.1882   92.9904   10.3679 C.3     1  UNL1        0.0421
     34 C          67.9240   93.3811    9.1205 C.2     1  UNL1        0.0503
     35 O          68.6621   92.3427    8.3289 O.co2   1  UNL1       -0.5492
     36 O          67.9216   94.8102    8.6648 O.co2   1  UNL1       -0.5492
@<TRIPOS>UNITY_ATOM_ATTR
35 1
charge -1
@<TRIPOS>BOND
     1     1     2    1
     2     2     3   ar
     3     3    13    1
     4    13    14    1
     5    14    15    1
     6    15    16    1
     7    16    17    1
     8    17    18    1
     9     3     4   ar
    10     4     5   ar
    11     5     6   ar
    12     6     7   ar
    13     7     8   ar
    14     8     9    1
    15     8    10   ar
    16    10    11   ar
    17    11    12   ar
    18    12    19    1
    19    19    20    2
    20    19    21   am
    21    21    23    1
    22    23    24    1
    23    24    32    1
    24    32    33    1
    25    33    34    1
    26    34    35   ar
    27    34    36   ar
    28    24    25    1
    29    25    26   ar
    30    26    27   ar
    31    27    28   ar
    32    28    29   ar
    33    29    30   ar
    34    30    31    1
    35    12     2   ar
    36    30    25   ar
    37    18    13    1
    38    11     5   ar
    39    21    22    1
@<TRIPOS>MOLECULE
*****
 36 39 0 0 0
SMALL
GASTEIGER

@<TRIPOS>ATOM
      1 C          61.6762   90.3784   10.5716 C.3     1  UNL1        0.0341
      2 C          62.0159   89.0012   11.0594 C.ar    1  UNL1        0.0141
      3 C          61.4557   87.7984   10.3598 C.ar    1  UNL1        0.1277
      4 N          61.7954   86.4212   10.8476 N.ar    1  UNL1       -0.2310
      5 C          62.6953   86.2468   12.0350 C.ar    1  UNL1        0.0828
      6 C          63.0350   84.8696   12.5227 C.ar    1  UNL1        0.0197
      7 C          63.9349   84.6952   13.7100 C.ar    1  UNL1        0.0082
      8 C          64.4950   85.8981   14.4096 C.ar    1  UNL1        0.0347
      9 BR         65.3949   85.7236   15.5970 Br      1  UNL1       -0.0490
     10 C          64.1553   87.2752   13.9219 C.ar    1  UNL1        0.0083
     11 C          63.2555   87.4496   12.7345 C.ar    1  UNL1        0.0223
     12 C          62.9157   88.8268   12.2467 C.ar    1  UNL1        0.0535
     13 N          60.5558   87.9728    9.1724 N.pl3   1  UNL1       -0.2935
     14 C          59.8277   86.7914    8.6033 C.3     1  UNL1        0.0921
     15 C          58.9278   86.9658    7.4159 C.3     1  UNL1        0.0215
     16 C          58.7561   88.3217    6.7978 C.3     1  UNL1        0.0035
     17 C          59.4843   89.5031    7.3669 C.3     1  UNL1        0.0215
     18 C          60.3841   89.3286    8.5543 C.3     1  UNL1        0.0921
     19 C          63.4759   90.0297   12.9463 C.2     1  UNL1        0.2457
     20 O          63.0185   90.3712   14.3334 O.2     1  UNL1       -0.2702
     21 N          64.4935   90.8909   12.2588 N.am    1  UNL1       -0.3005
     22 H          64.7938   90.6668   11.3483 H       1  UNL1        0.1497
     23 C          65.0537   92.0938   12.9583 C.3     1  UNL1        0.0940
     24 C          66.4431   92.5642   12.6451 C.3     1  UNL1        0.0431
     25 C          66.6649   93.5810   11.5649 C.ar    1  UNL1       -0.0103
     26 C          66.1819   94.9891   11.7497 C.ar    1  UNL1       -0.0034
     27 C          66.4037   96.0060   10.6695 C.ar    1  UNL1       -0.0003
     28 C          67.1085   95.6148    9.4045 C.ar    1  UNL1        0.0008
     29 C          67.5915   94.2067    9.2197 C.ar    1  UNL1        0.0111
     30 C          67.3697   93.1899   10.2998 C.ar    1  UNL1        0.0537
     31 CL         67.8527   91.7818   10.1150 Cl      1  UNL1       -0.0826
     32 C          67.6107   92.0178   13.4119 C.3     1  UNL1        0.0120
     33 C          67.4678   91.7016   14.8712 C.3     1  UNL1        0.0421
     34 C          67.1724   92.7984   15.8509 C.2     1  UNL1        0.0503
     35 O          68.1178   93.9546   15.9899 O.co2   1  UNL1       -0.5492
     36 O          65.9314   92.7390   16.6915 O.co2   1  UNL1       -0.5492
@<TRIPOS>UNITY_ATOM_ATTR
35 1
charge -1
@<TRIPOS>BOND
     1     1     2    1
     2     2     3   ar
     3     3    13    1
     4    13    14    1
     5    14    15    1
     6    15    16    1
     7    16    17    1
     8    17    18    1
     9     3     4   ar
    10     4     5   ar
    11     5     6   ar
    12     6     7   ar
    13     7     8   ar
    14     8     9    1
    15     8    10   ar
    16    10    11   ar
    17    11    12   ar
    18    12    19    1
    19    19    20    2
    20    19    21   am
    21    21    23    1
    22    23    24    1
    23    24    32    1
    24    32    33    1
    25    33    34    1
    26    34    35   ar
    27    34    36   ar
    28    24    25    1
    29    25    26   ar
    30    26    27   ar
    31    27    28   ar
    32    28    29   ar
    33    29    30   ar
    34    30    31    1
    35    12     2   ar
    36    30    25   ar
    37    18    13    1
    38    11     5   ar
    39    21    22    1
@<TRIPOS>MOLECULE
*****
 36 39 0 0 0
SMALL
GASTEIGER

@<TRIPOS>ATOM
      1 C          64.6362   87.9267   14.3742 C.3     1  UNL1        0.0341
      2 C          63.7590   88.5336   13.3195 C.ar    1  UNL1        0.0141
      3 C          63.6300   90.0246   13.2181 C.ar    1  UNL1        0.1277
      4 N          62.7529   90.6315   12.1635 N.ar    1  UNL1       -0.2310
      5 C          62.0047   89.7473   11.2102 C.ar    1  UNL1        0.0828
      6 C          61.1275   90.3542   10.1556 C.ar    1  UNL1        0.0197
      7 C          60.3794   89.4701    9.2024 C.ar    1  UNL1        0.0082
      8 C          60.5085   87.9791    9.3039 C.ar    1  UNL1        0.0347
      9 BR         59.7603   87.0950    8.3506 Br      1  UNL1       -0.0490
     10 C          61.3856   87.3722   10.3585 C.ar    1  UNL1        0.0083
     11 C          62.1337   88.2564   11.3117 C.ar    1  UNL1        0.0223
     12 C          63.0109   87.6495   12.3664 C.ar    1  UNL1        0.0535
     13 N          64.3782   90.9087   14.1714 N.pl3   1  UNL1       -0.2935
     14 C          65.6202   91.6178   13.7191 C.3     1  UNL1        0.0921
     15 C          66.3683   92.5019   14.6724 C.3     1  UNL1        0.0215
     16 C          65.8744   92.6768   16.0779 C.3     1  UNL1        0.0035
     17 C          64.6324   91.9677   16.5302 C.3     1  UNL1        0.0215
     18 C          63.8843   91.0837   15.5769 C.3     1  UNL1        0.0921
     19 C          63.1400   86.1585   12.4678 C.2     1  UNL1        0.2457
     20 O          62.1695   85.2709   11.7464 O.2     1  UNL1       -0.2702
     21 N          64.2395   85.5551   13.2906 N.am    1  UNL1       -0.3005
     22 H          64.8765   86.1376   13.7640 H       1  UNL1        0.1497
     23 C          64.3685   84.0641   13.3920 C.3     1  UNL1        0.0940
     24 C          63.1410   83.2124   13.5248 C.3     1  UNL1        0.0431
     25 C          63.0094   81.9553   12.7171 C.ar    1  UNL1       -0.0103
     26 C          62.5132   80.6964   13.3643 C.ar    1  UNL1       -0.0034
     27 C          62.3817   79.4393   12.5565 C.ar    1  UNL1       -0.0003
     28 C          62.7463   79.4412   11.1015 C.ar    1  UNL1        0.0008
     29 C          63.2425   80.7001   10.4543 C.ar    1  UNL1        0.0111
     30 C          63.3741   81.9571   11.2620 C.ar    1  UNL1        0.0537
     31 CL         63.8703   83.2161   10.6148 Cl      1  UNL1       -0.0826
     32 C          62.0451   83.6177   14.4654 C.3     1  UNL1        0.0120
     33 C          62.3443   83.8260   15.9203 C.3     1  UNL1        0.0421
     34 C          62.5353   85.2142   16.4555 C.2     1  UNL1        0.0503
     35 O          63.9075   85.8181   16.5014 O.co2   1  UNL1       -0.5492
     36 O          61.3539   85.9985   16.9448 O.co2   1  UNL1       -0.5492
@<TRIPOS>UNITY_ATOM_ATTR
35 1
charge -1
@<TRIPOS>BOND
     1     1     2    1
     2     2     3   ar
     3     3    13    1
     4    13    14    1
     5    14    15    1
     6    15    16    1
     7    16    17    1
     8    17    18    1
     9     3     4   ar
    10     4     5   ar
    11     5     6   ar
    12     6     7   ar
    13     7     8   ar
    14     8     9    1
    15     8    10   ar
    16    10    11   ar
    17    11    12   ar
    18    12    19    1
    19    19    20    2
    20    19    21   am
    21    21    23    1
    22    23    24    1
    23    24    32    1
    24    32    33    1
    25    33    34    1
    26    34    35   ar
    27    34    36   ar
    28    24    25    1
    29    25    26   ar
    30    26    27   ar
    31    27    28   ar
    32    28    29   ar
    33    29    30   ar
    34    30    31    1
    35    12     2   ar
    36    30    25   ar
    37    18    13    1
    38    11     5   ar
    39    21    22    1
@<TRIPOS>MOLECULE
*****
 36 39 0 0 0
SMALL
GASTEIGER

@<TRIPOS>ATOM
      1 C          64.0669   87.6360   13.4570 C.3     1  UNL1        0.0341
      2 C          63.2152   88.2526   12.3872 C.ar    1  UNL1        0.0141
      3 C          63.1818   89.7430   12.2211 C.ar    1  UNL1        0.1277
      4 N          62.3301   90.3596   11.1514 N.ar    1  UNL1       -0.2310
      5 C          61.5117   89.4857   10.2476 C.ar    1  UNL1        0.0828
      6 C          60.6600   90.1023    9.1779 C.ar    1  UNL1        0.0197
      7 C          59.8416   89.2284    8.2742 C.ar    1  UNL1        0.0082
      8 C          59.8750   87.7380    8.4403 C.ar    1  UNL1        0.0347
      9 BR         59.0566   86.8642    7.5365 Br      1  UNL1       -0.0490
     10 C          60.7267   87.1214    9.5100 C.ar    1  UNL1        0.0083
     11 C          61.5451   87.9953   10.4137 C.ar    1  UNL1        0.0223
     12 C          62.3968   87.3787   11.4835 C.ar    1  UNL1        0.0535
     13 N          64.0002   90.6169   13.1249 N.pl3   1  UNL1       -0.2935
     14 C          63.8263   90.5289   14.6121 C.3     1  UNL1        0.0921
     15 C          64.6447   91.4028   15.5158 C.3     1  UNL1        0.0215
     16 C          65.6369   92.3645   14.9322 C.3     1  UNL1        0.0035
     17 C          65.8108   92.4524   13.4449 C.3     1  UNL1        0.0215
     18 C          64.9924   91.5786   12.5413 C.3     1  UNL1        0.0921
     19 C          62.4302   85.8883   11.6496 C.2     1  UNL1        0.2457
     20 O          62.7258   85.0088   10.4711 O.2     1  UNL1       -0.2702
     21 N          62.1679   85.2775   12.9943 N.am    1  UNL1       -0.3005
     22 H          61.9739   85.8548   13.7678 H       1  UNL1        0.1497
     23 C          62.2013   83.7871   13.1604 C.3     1  UNL1        0.0940
     24 C          63.3804   83.0034   12.6649 C.3     1  UNL1        0.0431
     25 C          63.1697   81.6944   11.9634 C.ar    1  UNL1       -0.0103
     26 C          63.3997   81.5903   10.4848 C.ar    1  UNL1       -0.0034
     27 C          63.1890   80.2813    9.7834 C.ar    1  UNL1       -0.0003
     28 C          62.7483   79.0764   10.5605 C.ar    1  UNL1        0.0008
     29 C          62.5184   79.1805   12.0391 C.ar    1  UNL1        0.0111
     30 C          62.7291   80.4895   12.7406 C.ar    1  UNL1        0.0537
     31 CL         62.4991   80.5935   14.2192 Cl      1  UNL1       -0.0826
     32 C          64.7702   83.5288   12.8709 C.3     1  UNL1        0.0120
     33 C          65.0542   84.4773   13.9977 C.3     1  UNL1        0.0421
     34 C          64.4446   84.2418   15.3479 C.2     1  UNL1        0.0503
     35 O          63.9858   85.4047   16.1768 O.co2   1  UNL1       -0.5492
     36 O          64.2939   82.8433   15.8692 O.co2   1  UNL1       -0.5492
@<TRIPOS>UNITY_ATOM_ATTR
35 1
charge -1
@<TRIPOS>BOND
     1     1     2    1
     2     2     3   ar
     3     3    13    1
     4    13    14    1
     5    14    15    1
     6    15    16    1
     7    16    17    1
     8    17    18    1
     9     3     4   ar
    10     4     5   ar
    11     5     6   ar
    12     6     7   ar
    13     7     8   ar
    14     8     9    1
    15     8    10   ar
    16    10    11   ar
    17    11    12   ar
    18    12    19    1
    19    19    20    2
    20    19    21   am
    21    21    23    1
    22    23    24    1
    23    24    32    1
    24    32    33    1
    25    33    34    1
    26    34    35   ar
    27    34    36   ar
    28    24    25    1
    29    25    26   ar
    30    26    27   ar
    31    27    28   ar
    32    28    29   ar
    33    29    30   ar
    34    30    31    1
    35    12     2   ar
    36    30    25   ar
    37    18    13    1
    38    11     5   ar
    39    21    22    1
@<TRIPOS>MOLECULE
*****
 36 39 0 0 0
SMALL
GASTEIGER

@<TRIPOS>ATOM
      1 C          64.0742   87.8820   13.5213 C.3     1  UNL1        0.0341
      2 C          63.2582   88.4493   12.3976 C.ar    1  UNL1        0.0141
      3 C          63.2950   89.9216   12.1130 C.ar    1  UNL1        0.1277
      4 N          62.4791   90.4889   10.9894 N.ar    1  UNL1       -0.2310
      5 C          61.6263   89.5839   10.1505 C.ar    1  UNL1        0.0828
      6 C          60.8103   90.1512    9.0269 C.ar    1  UNL1        0.0197
      7 C          59.9576   89.2462    8.1881 C.ar    1  UNL1        0.0082
      8 C          59.9208   87.7739    8.4727 C.ar    1  UNL1        0.0347
      9 BR         59.0680   86.8689    7.6338 Br      1  UNL1       -0.0490
     10 C          60.7367   87.2066    9.5963 C.ar    1  UNL1        0.0083
     11 C          61.5894   88.1116   10.4351 C.ar    1  UNL1        0.0223
     12 C          62.4054   87.5443   11.5588 C.ar    1  UNL1        0.0535
     13 N          64.1478   90.8266   12.9519 N.pl3   1  UNL1       -0.2935
     14 C          65.0394   91.8384   12.2952 C.3     1  UNL1        0.0921
     15 C          65.8921   92.7433   13.1341 C.3     1  UNL1        0.0215
     16 C          65.8533   92.6365   14.6298 C.3     1  UNL1        0.0035
     17 C          64.9617   91.6247   15.2866 C.3     1  UNL1        0.0215
     18 C          64.1090   90.7197   14.4476 C.3     1  UNL1        0.0921
     19 C          62.3686   86.0720   11.8434 C.2     1  UNL1        0.2457
     20 O          61.1821   85.4718   12.5377 O.2     1  UNL1       -0.2702
     21 N          63.5183   85.2000   11.4339 N.am    1  UNL1       -0.3005
     22 H          64.2971   85.5939   10.9782 H       1  UNL1        0.1497
     23 C          63.4815   83.7277   11.7185 C.3     1  UNL1        0.0940
     24 C          63.8673   83.2162   13.0748 C.3     1  UNL1        0.0431
     25 C          63.5953   84.0457   14.2945 C.ar    1  UNL1       -0.0103
     26 C          62.2366   84.0223   14.9297 C.ar    1  UNL1       -0.0034
     27 C          61.9646   84.8519   16.1495 C.ar    1  UNL1       -0.0003
     28 C          63.0512   85.7049   16.7340 C.ar    1  UNL1        0.0008
     29 C          64.4098   85.7284   16.0987 C.ar    1  UNL1        0.0111
     30 C          64.6819   84.8988   14.8790 C.ar    1  UNL1        0.0537
     31 CL         66.0405   84.9223   14.2438 Cl      1  UNL1       -0.0826
     32 C          64.5252   81.8750   13.2113 C.3     1  UNL1        0.0120
     33 C          63.7678   80.7252   13.8064 C.3     1  UNL1        0.0421
     34 C          62.4636   80.2941   13.2039 C.2     1  UNL1        0.0503
     35 O          62.4530   79.4037   11.9968 O.co2   1  UNL1       -0.5492
     36 O          61.1698   80.7534   13.8084 O.co2   1  UNL1       -0.5492
@<TRIPOS>UNITY_ATOM_ATTR
35 1
charge -1
@<TRIPOS>BOND
     1     1     2    1
     2     2     3   ar
     3     3    13    1
     4    13    14    1
     5    14    15    1
     6    15    16    1
     7    16    17    1
     8    17    18    1
     9     3     4   ar
    10     4     5   ar
    11     5     6   ar
    12     6     7   ar
    13     7     8   ar
    14     8     9    1
    15     8    10   ar
    16    10    11   ar
    17    11    12   ar
    18    12    19    1
    19    19    20    2
    20    19    21   am
    21    21    23    1
    22    23    24    1
    23    24    32    1
    24    32    33    1
    25    33    34    1
    26    34    35   ar
    27    34    36   ar
    28    24    25    1
    29    25    26   ar
    30    26    27   ar
    31    27    28   ar
    32    28    29   ar
    33    29    30   ar
    34    30    31    1
    35    12     2   ar
    36    30    25   ar
    37    18    13    1
    38    11     5   ar
    39    21    22    1
@<TRIPOS>MOLECULE
*****
 36 39 0 0 0
SMALL
GASTEIGER

@<TRIPOS>ATOM
      1 C          61.6903   86.5424   11.4016 C.3     1  UNL1        0.0341
      2 C          62.2644   87.9261   11.3246 C.ar    1  UNL1        0.0141
      3 C          61.8800   88.8358   10.1956 C.ar    1  UNL1        0.1277
      4 N          62.4540   90.2194   10.1185 N.ar    1  UNL1       -0.2310
      5 C          63.4126   90.6934   11.1705 C.ar    1  UNL1        0.0828
      6 C          63.9866   92.0770   11.0935 C.ar    1  UNL1        0.0197
      7 C          64.9451   92.5510   12.1455 C.ar    1  UNL1        0.0082
      8 C          65.3295   91.6412   13.2745 C.ar    1  UNL1        0.0347
      9 BR         66.2881   92.1152   14.3265 Br      1  UNL1       -0.0490
     10 C          64.7555   90.2576   13.3515 C.ar    1  UNL1        0.0083
     11 C          63.7970   89.7837   12.2995 C.ar    1  UNL1        0.0223
     12 C          63.2229   88.4000   12.3765 C.ar    1  UNL1        0.0535
     13 N          60.9214   88.3618    9.1436 N.pl3   1  UNL1       -0.2935
     14 C          60.8023   86.8972    8.8426 C.3     1  UNL1        0.0921
     15 C          59.8438   86.4233    7.7906 C.3     1  UNL1        0.0215
     16 C          59.0044   87.4140    7.0397 C.3     1  UNL1        0.0035
     17 C          59.1235   88.8786    7.3407 C.3     1  UNL1        0.0215
     18 C          60.0820   89.3525    8.3926 C.3     1  UNL1        0.0921
     19 C          63.6073   87.4903   13.5055 C.2     1  UNL1        0.2457
     20 O          63.6998   88.0271   14.9031 O.2     1  UNL1       -0.2702
     21 N          63.8992   86.0437   13.2369 N.am    1  UNL1       -0.3005
     22 H          63.8385   85.6913   12.3197 H       1  UNL1        0.1497
     23 C          64.2837   85.1339   14.3659 C.3     1  UNL1        0.0940
     24 C          63.2855   84.1593   14.9169 C.3     1  UNL1        0.0431
     25 C          62.9919   82.8877   14.1775 C.ar    1  UNL1       -0.0103
     26 C          61.8291   82.0332   14.5870 C.ar    1  UNL1       -0.0034
     27 C          61.5356   80.7616   13.8475 C.ar    1  UNL1       -0.0003
     28 C          62.4049   80.3445   12.6984 C.ar    1  UNL1        0.0008
     29 C          63.5677   81.1989   12.2889 C.ar    1  UNL1        0.0111
     30 C          63.8612   82.4705   13.0284 C.ar    1  UNL1        0.0537
     31 CL         65.0241   83.3250   12.6188 Cl      1  UNL1       -0.0826
     32 C          62.5808   84.4562   16.2074 C.3     1  UNL1        0.0120
     33 C          63.1718   85.4372   17.1761 C.3     1  UNL1        0.0421
     34 C          62.3155   86.5194   17.7639 C.2     1  UNL1        0.0503
     35 O          61.0550   86.9396   17.0678 O.co2   1  UNL1       -0.5492
     36 O          62.7197   87.1815   19.0478 O.co2   1  UNL1       -0.5492
@<TRIPOS>UNITY_ATOM_ATTR
35 1
charge -1
@<TRIPOS>BOND
     1     1     2    1
     2     2     3   ar
     3     3    13    1
     4    13    14    1
     5    14    15    1
     6    15    16    1
     7    16    17    1
     8    17    18    1
     9     3     4   ar
    10     4     5   ar
    11     5     6   ar
    12     6     7   ar
    13     7     8   ar
    14     8     9    1
    15     8    10   ar
    16    10    11   ar
    17    11    12   ar
    18    12    19    1
    19    19    20    2
    20    19    21   am
    21    21    23    1
    22    23    24    1
    23    24    32    1
    24    32    33    1
    25    33    34    1
    26    34    35   ar
    27    34    36   ar
    28    24    25    1
    29    25    26   ar
    30    26    27   ar
    31    27    28   ar
    32    28    29   ar
    33    29    30   ar
    34    30    31    1
    35    12     2   ar
    36    30    25   ar
    37    18    13    1
    38    11     5   ar
    39    21    22    1
