@<TRIPOS>MOLECULE
*****
 37 40 0 0 0
SMALL
GASTEIGER

@<TRIPOS>ATOM
      1 N          63.0659   90.9964   11.6820 N.am    1  UNL1       -0.2438
      2 C          63.5982   91.5979   10.4151 C.3     1  UNL1        0.1009
      3 C          64.8169   92.4715   10.4539 C.3     1  UNL1        0.0662
      4 C          65.5034   92.7436   11.7595 C.3     1  UNL1        0.1600
      5 O          64.9712   92.1421   13.0264 O.3     1  UNL1       -0.4374
      6 C          63.7525   91.2685   12.9876 C.2     1  UNL1        0.4051
      7 O          63.2203   90.6670   14.2545 O.2     1  UNL1       -0.2262
      8 C          66.3798   93.5350   10.8345 C.ar    1  UNL1        0.0138
      9 C          66.3297   95.0340   10.8534 C.ar    1  UNL1       -0.0010
     10 C          67.2060   95.8254    9.9284 C.ar    1  UNL1       -0.0002
     11 C          68.1325   95.1179    8.9845 C.ar    1  UNL1       -0.0000
     12 C          68.1826   93.6189    8.9655 C.ar    1  UNL1       -0.0002
     13 C          67.3063   92.8274    9.8905 C.ar    1  UNL1       -0.0010
     14 C          61.8472   90.1228   11.6432 C.3     1  UNL1        0.1011
     15 C          60.4829   90.7417   11.5701 C.3     1  UNL1        0.0265
     16 C          62.2842   85.6452   11.7464 C.ar    1  UNL1        0.0002
     17 C          61.1944   86.2738   10.9295 C.ar    1  UNL1       -0.0003
     18 C          61.0488   87.7664   10.8952 C.ar    1  UNL1       -0.0027
     19 C          61.9929   88.6303   11.6776 C.ar    1  UNL1       -0.0042
     20 C          63.0826   88.0017   12.4944 C.ar    1  UNL1       -0.0027
     21 C          63.2283   86.5091   12.5288 C.ar    1  UNL1       -0.0003
     22 N          62.7211   81.1677   11.8495 N.ar    1  UNL1       -0.2960
     23 C          63.0628   81.9260   10.6013 C.ar    1  UNL1        0.0782
     24 C          62.9172   83.4186   10.5669 C.ar    1  UNL1        0.0189
     25 C          62.4298   84.1527   11.7807 C.ar    1  UNL1        0.0062
     26 C          62.0881   83.3944   13.0289 C.ar    1  UNL1        0.0608
     27 C          62.2337   81.9018   13.0633 C.ar    1  UNL1        0.2609
     28 O          61.8919   81.1435   14.3116 O.2     1  UNL1       -0.2670
     29 C          62.8899   78.9540   13.1988 C.3     1  UNL1        0.0246
     30 C          62.8667   79.6752   11.8839 C.3     1  UNL1        0.0886
     31 C          62.9893   78.9039   10.6032 C.3     1  UNL1        0.0246
     32 C          66.4943   93.2905   12.7439 C.3     1  UNL1        0.0714
     33 C          67.0667   92.3991   13.8058 C.3     1  UNL1        0.0922
     34 C          66.2991   93.1520   14.8517 C.3     1  UNL1        0.0294
     35 C          67.8343   91.6461   12.7599 C.3     1  UNL1        0.0294
     36 O          67.6392   91.5076   14.8678 O.3     1  UNL1       -0.3866
     37 H          67.2946   91.7745   15.7343 H       1  UNL1        0.2102
@<TRIPOS>BOND
     1    29    30    1
     2    30    31    1
     3    30    22    1
     4    22    23   ar
     5    23    24   ar
     6    24    25   ar
     7    25    16    1
     8    16    17   ar
     9    17    18   ar
    10    18    19   ar
    11    19    14    1
    12    14    15    1
    13    14     1    1
    14     1     2    1
    15     2     3    1
    16     3     4    1
    17     4    32    1
    18    32    33    1
    19    33    34    1
    20    33    35    1
    21    33    36    1
    22     4     8    1
    23     8     9   ar
    24     9    10   ar
    25    10    11   ar
    26    11    12   ar
    27    12    13   ar
    28     4     5    1
    29     5     6    1
    30     6     7    2
    31    19    20   ar
    32    20    21   ar
    33    25    26   ar
    34    26    27   ar
    35    27    28    2
    36    27    22   ar
    37    21    16   ar
    38     6     1   am
    39    13     8   ar
    40    36    37    1
@<TRIPOS>MOLECULE
*****
 37 40 0 0 0
SMALL
GASTEIGER

@<TRIPOS>ATOM
      1 N          63.5476   90.7255   11.9100 N.am    1  UNL1       -0.2438
      2 C          64.2280   90.5517   13.2354 C.3     1  UNL1        0.1009
      3 C          65.4467   91.3619   13.5648 C.3     1  UNL1        0.0662
      4 C          65.9848   92.3459   12.5688 C.3     1  UNL1        0.1600
      5 O          65.3044   92.5197   11.2434 O.3     1  UNL1       -0.4374
      6 C          64.0858   91.7095   10.9139 C.2     1  UNL1        0.4051
      7 O          63.4054   91.8833    9.5885 O.2     1  UNL1       -0.2262
      8 C          66.9711   92.5369   13.6827 C.ar    1  UNL1        0.0138
      9 C          68.3604   91.9855   13.5572 C.ar    1  UNL1       -0.0010
     10 C          69.3466   92.1764   14.6710 C.ar    1  UNL1       -0.0002
     11 C          68.9436   92.9189   15.9105 C.ar    1  UNL1       -0.0000
     12 C          67.5544   93.4703   16.0362 C.ar    1  UNL1       -0.0002
     13 C          66.5681   93.2794   14.9223 C.ar    1  UNL1       -0.0010
     14 C          62.3290   89.9153   11.5805 C.3     1  UNL1        0.1011
     15 C          61.0438   90.6034   11.2273 C.3     1  UNL1        0.0265
     16 C          62.5286   85.4203   11.6520 C.ar    1  UNL1        0.0002
     17 C          61.7294   86.1188   10.5922 C.ar    1  UNL1       -0.0003
     18 C          61.6629   87.6171   10.5684 C.ar    1  UNL1       -0.0027
     19 C          62.3955   88.4169   11.6044 C.ar    1  UNL1       -0.0042
     20 C          63.1948   87.7184   12.6642 C.ar    1  UNL1       -0.0027
     21 C          63.2613   86.2201   12.6880 C.ar    1  UNL1       -0.0003
     22 N          62.7283   80.9253   11.7235 N.ar    1  UNL1       -0.2960
     23 C          63.2809   81.6820   10.5522 C.ar    1  UNL1        0.0782
     24 C          63.2144   83.1804   10.5284 C.ar    1  UNL1        0.0189
     25 C          62.5952   83.9219   11.6758 C.ar    1  UNL1        0.0062
     26 C          62.0425   83.1652   12.8471 C.ar    1  UNL1        0.0608
     27 C          62.1091   81.6668   12.8709 C.ar    1  UNL1        0.2609
     28 O          61.5563   80.9101   14.0422 O.2     1  UNL1       -0.2670
     29 C          62.7552   78.6951   13.0560 C.3     1  UNL1        0.0246
     30 C          62.7948   79.4269   11.7473 C.3     1  UNL1        0.0886
     31 C          62.9010   78.6604   10.4624 C.3     1  UNL1        0.0246
     32 C          66.8655   93.3963   11.9596 C.3     1  UNL1        0.0714
     33 C          66.6676   93.8039   10.5297 C.3     1  UNL1        0.0922
     34 C          65.8412   94.9730   10.9773 C.3     1  UNL1        0.0294
     35 C          67.4940   92.6347   10.0821 C.3     1  UNL1        0.0294
     36 O          66.4697   94.2115    9.0997 O.3     1  UNL1       -0.3866
     37 H          65.9233   95.0121    9.0644 H       1  UNL1        0.2102
@<TRIPOS>BOND
     1    29    30    1
     2    30    31    1
     3    30    22    1
     4    22    23   ar
     5    23    24   ar
     6    24    25   ar
     7    25    16    1
     8    16    17   ar
     9    17    18   ar
    10    18    19   ar
    11    19    14    1
    12    14    15    1
    13    14     1    1
    14     1     2    1
    15     2     3    1
    16     3     4    1
    17     4    32    1
    18    32    33    1
    19    33    34    1
    20    33    35    1
    21    33    36    1
    22     4     8    1
    23     8     9   ar
    24     9    10   ar
    25    10    11   ar
    26    11    12   ar
    27    12    13   ar
    28     4     5    1
    29     5     6    1
    30     6     7    2
    31    19    20   ar
    32    20    21   ar
    33    25    26   ar
    34    26    27   ar
    35    27    28    2
    36    27    22   ar
    37    21    16   ar
    38     6     1   am
    39    13     8   ar
    40    36    37    1
@<TRIPOS>MOLECULE
*****
 37 40 0 0 0
SMALL
GASTEIGER

@<TRIPOS>ATOM
      1 N          72.5781   75.4822   14.8495 N.am    1  UNL1       -0.2438
      2 C          71.8363   74.8448   13.7122 C.3     1  UNL1        0.1009
      3 C          71.4056   73.4110   13.8076 C.3     1  UNL1        0.0662
      4 C          71.7168   72.6148   15.0401 C.3     1  UNL1        0.1600
      5 O          72.4586   73.2523   16.1774 O.3     1  UNL1       -0.4374
      6 C          72.8892   74.6860   16.0821 C.2     1  UNL1        0.4051
      7 O          73.6310   75.3235   17.2193 O.2     1  UNL1       -0.2262
      8 C          70.9962   71.5755   14.2337 C.ar    1  UNL1        0.0138
      9 C          70.0380   71.9924   13.1575 C.ar    1  UNL1       -0.0010
     10 C          69.3174   70.9531   12.3511 C.ar    1  UNL1       -0.0002
     11 C          69.5549   69.4967   12.6207 C.ar    1  UNL1       -0.0000
     12 C          70.5130   69.0797   13.6968 C.ar    1  UNL1       -0.0002
     13 C          71.2337   70.1191   14.5034 C.ar    1  UNL1       -0.0010
     14 C          73.0087   76.9159   14.7542 C.3     1  UNL1        0.1011
     15 C          73.4772   77.6413   15.9806 C.3     1  UNL1        0.0265
     16 C          72.8951   79.0406   10.7890 C.ar    1  UNL1        0.0002
     17 C          73.5747   77.7087   10.9070 C.ar    1  UNL1       -0.0003
     18 C          73.6126   77.0004   12.2287 C.ar    1  UNL1       -0.0027
     19 C          72.9708   77.6241   13.4325 C.ar    1  UNL1       -0.0042
     20 C          72.2912   78.9561   13.3145 C.ar    1  UNL1       -0.0027
     21 C          72.2533   79.6643   11.9927 C.ar    1  UNL1       -0.0003
     22 N          72.7814   81.1653    6.8238 N.ar    1  UNL1       -0.2960
     23 C          73.3962   81.8356    8.0165 C.ar    1  UNL1        0.0782
     24 C          73.4341   81.1274    9.3383 C.ar    1  UNL1        0.0189
     25 C          72.8572   79.7488    9.4673 C.ar    1  UNL1        0.0062
     26 C          72.2425   79.0785    8.2745 C.ar    1  UNL1        0.0608
     27 C          72.2046   79.7867    6.9528 C.ar    1  UNL1        0.2609
     28 O          71.5898   79.1163    5.7600 O.2     1  UNL1       -0.2670
     29 C          71.8202   83.0385    5.3016 C.3     1  UNL1        0.0246
     30 C          72.7436   81.8735    5.5021 C.3     1  UNL1        0.0886
     31 C          73.6291   81.4168    4.3808 C.3     1  UNL1        0.0246
     32 C          71.7777   71.4577   15.9926 C.3     1  UNL1        0.0714
     33 C          71.8069   71.7047   17.4719 C.3     1  UNL1        0.0922
     34 C          70.3528   72.0718   17.4393 C.3     1  UNL1        0.0294
     35 C          73.2609   71.3376   17.5045 C.3     1  UNL1        0.0294
     36 O          71.8360   71.9517   18.9512 O.3     1  UNL1       -0.3866
     37 H          70.9558   72.2287   19.2501 H       1  UNL1        0.2102
@<TRIPOS>BOND
     1    29    30    1
     2    30    31    1
     3    30    22    1
     4    22    23   ar
     5    23    24   ar
     6    24    25   ar
     7    25    16    1
     8    16    17   ar
     9    17    18   ar
    10    18    19   ar
    11    19    14    1
    12    14    15    1
    13    14     1    1
    14     1     2    1
    15     2     3    1
    16     3     4    1
    17     4    32    1
    18    32    33    1
    19    33    34    1
    20    33    35    1
    21    33    36    1
    22     4     8    1
    23     8     9   ar
    24     9    10   ar
    25    10    11   ar
    26    11    12   ar
    27    12    13   ar
    28     4     5    1
    29     5     6    1
    30     6     7    2
    31    19    20   ar
    32    20    21   ar
    33    25    26   ar
    34    26    27   ar
    35    27    28    2
    36    27    22   ar
    37    21    16   ar
    38     6     1   am
    39    13     8   ar
    40    36    37    1
