@<TRIPOS>MOLECULE
*****
 40 44 0 0 0
SMALL
GASTEIGER

@<TRIPOS>ATOM
      1 N          62.1489   87.9370   10.9189 N.ar    1  UNL1       -0.2716
      2 C          61.3409   88.3940    9.7406 C.ar    1  UNL1        0.2649
      3 O          60.6216   87.3898    8.8896 O.2     1  UNL1       -0.2666
      4 C          61.2523   89.8552    9.4134 C.ar    1  UNL1        0.0611
      5 C          61.9716   90.8593   10.2643 C.ar    1  UNL1        0.0064
      6 C          62.7796   90.4023   11.4427 C.ar    1  UNL1        0.0177
      7 C          63.4989   91.4065   12.2936 C.ar    1  UNL1        0.0216
      8 C          64.3069   90.9495   13.4719 C.ar    1  UNL1        0.1253
      9 C          64.3955   89.4883   13.7992 C.ar    1  UNL1        0.0217
     10 C          63.6762   88.4841   12.9482 C.ar    1  UNL1        0.0190
     11 C          62.8683   88.9412   11.7699 C.ar    1  UNL1        0.0670
     12 C          62.6113   85.4897   10.1795 C.ar    1  UNL1        0.1547
     13 C          62.6999   84.0285   10.5068 C.ar    1  UNL1        0.0384
     14 C          62.4148   83.5535   11.9007 C.ar    1  UNL1        0.0031
     15 C          62.0410   84.5396   12.9674 C.ar    1  UNL1        0.0017
     16 C          61.9524   86.0008   12.6401 C.ar    1  UNL1        0.0207
     17 C          62.2375   86.4758   11.2461 C.ar    1  UNL1        0.1006
     18 C          62.5034   82.0923   12.2280 C.ar    1  UNL1        0.0000
     19 C          62.3795   81.6335   13.6508 C.ar    1  UNL1       -0.0000
     20 C          62.4682   80.1723   13.9780 C.ar    1  UNL1       -0.0001
     21 C          62.6806   79.1699   12.8825 C.ar    1  UNL1        0.0039
     22 C          62.8045   79.6287   11.4598 C.ar    1  UNL1        0.0714
     23 C          62.7159   81.0899   11.1325 C.ar    1  UNL1        0.0039
     24 C          63.0170   78.6263   10.3643 C.3     1  UNL1        0.4186
     25 F          63.2295   77.6239    9.2688 F       1  UNL1       -0.1659
     26 F          63.0240   77.5204   11.3776 F       1  UNL1       -0.1659
     27 F          63.0100   79.7322    9.3509 F       1  UNL1       -0.1659
     28 C          62.7958   85.0103    7.6327 C.3     1  UNL1        0.2525
     29 O          62.8964   85.9647    8.7855 O.3     1  UNL1       -0.4700
     30 S          65.0262   91.9537   14.3229 S.O2    1  UNL1        0.0758
     31 O          64.7277   91.1336   15.5429 O.2     1  UNL1       -0.1499
     32 O          65.3248   92.7737   13.1030 O.2     1  UNL1       -0.1499
     33 N          65.7456   92.9577   15.1740 N.pl3   1  UNL1       -0.1835
     34 H          65.2345   93.5691   15.7522 H       1  UNL1        0.1767
     35 C          67.2436   93.0304   15.1441 C.ar    1  UNL1        0.2360
     36 N          68.0166   92.1796   14.1805 N.ar    1  UNL1       -0.2110
     37 C          69.5145   92.2523   14.1506 C.ar    1  UNL1        0.1035
     38 C          70.2394   93.1758   15.0843 C.ar    1  UNL1        0.0414
     39 C          69.4663   94.0266   16.0478 C.ar    1  UNL1        0.1035
     40 N          67.9684   93.9539   16.0777 N.ar    1  UNL1       -0.2110
@<TRIPOS>BOND
     1    28    29    1
     2    29    12    1
     3    12    13   ar
     4    13    14   ar
     5    14    18    1
     6    18    19   ar
     7    19    20   ar
     8    20    21   ar
     9    21    22   ar
    10    22    24    1
    11    24    25    1
    12    24    26    1
    13    24    27    1
    14    22    23   ar
    15    14    15   ar
    16    15    16   ar
    17    16    17   ar
    18    17     1    1
    19     1     2   ar
    20     2     3    2
    21     2     4   ar
    22     4     5   ar
    23     5     6   ar
    24     6     7   ar
    25     7     8   ar
    26     8    30    1
    27    30    31    2
    28    30    32    2
    29    30    33    1
    30    33    35    1
    31    35    36   ar
    32    36    37   ar
    33    37    38   ar
    34    38    39   ar
    35    39    40   ar
    36     8     9   ar
    37     9    10   ar
    38    10    11   ar
    39    17    12   ar
    40    11     1   ar
    41    23    18   ar
    42    11     6   ar
    43    40    35   ar
    44    33    34    1
@<TRIPOS>MOLECULE
*****
 40 44 0 0 0
SMALL
GASTEIGER

@<TRIPOS>ATOM
      1 N          63.1946   94.2768    0.7363 N.ar    1  UNL1       -0.2716
      2 C          64.4828   94.8796    1.2127 C.ar    1  UNL1        0.2649
      3 O          64.8800   94.7580    2.6541 O.2     1  UNL1       -0.2666
      4 C          65.3740   95.6040    0.2478 C.ar    1  UNL1        0.0611
      5 C          64.9769   95.7256   -1.1936 C.ar    1  UNL1        0.0064
      6 C          63.6886   95.1228   -1.6700 C.ar    1  UNL1        0.0177
      7 C          63.2915   95.2444   -3.1114 C.ar    1  UNL1        0.0216
      8 C          62.0033   94.6416   -3.5878 C.ar    1  UNL1        0.1253
      9 C          61.1121   93.9172   -2.6228 C.ar    1  UNL1        0.0217
     10 C          61.5092   93.7956   -1.1815 C.ar    1  UNL1        0.0190
     11 C          62.7974   94.3984   -0.7051 C.ar    1  UNL1        0.0670
     12 C          60.9526   94.1105    2.0386 C.ar    1  UNL1        0.1547
     13 C          60.0615   93.3861    3.0035 C.ar    1  UNL1        0.0384
     14 C          60.5211   92.1036    3.6311 C.ar    1  UNL1        0.0031
     15 C          61.8719   91.5455    3.2938 C.ar    1  UNL1        0.0017
     16 C          62.7631   92.2698    2.3288 C.ar    1  UNL1        0.0207
     17 C          62.3034   93.5524    1.7012 C.ar    1  UNL1        0.1006
     18 C          59.6299   91.3792    4.5960 C.ar    1  UNL1        0.0000
     19 C          58.1505   91.6265    4.5812 C.ar    1  UNL1       -0.0000
     20 C          57.2593   90.9021    5.5461 C.ar    1  UNL1       -0.0001
     21 C          57.8476   89.9305    6.5259 C.ar    1  UNL1        0.0039
     22 C          59.3270   89.6833    6.5407 C.ar    1  UNL1        0.0714
     23 C          60.2181   90.4077    5.5758 C.ar    1  UNL1        0.0039
     24 C          59.9153   88.7116    7.5205 C.3     1  UNL1        0.4186
     25 F          60.5036   87.7401    8.5003 F       1  UNL1       -0.1659
     26 F          60.5192   89.8506    8.2873 F       1  UNL1       -0.1659
     27 F          59.3114   87.5727    6.7537 F       1  UNL1       -0.1659
     28 C          60.2702   96.6073    2.2629 C.3     1  UNL1        0.2525
     29 O          60.4929   95.3931    1.4110 O.3     1  UNL1       -0.4700
     30 S          61.6061   94.7631   -5.0292 S.O2    1  UNL1        0.0758
     31 O          63.0522   94.7625   -5.4276 O.2     1  UNL1       -0.1499
     32 O          60.1600   94.7638   -4.6307 O.2     1  UNL1       -0.1499
     33 N          61.2090   94.8847   -6.4705 N.pl3   1  UNL1       -0.1835
     34 H          61.8858   94.7812   -7.1780 H       1  UNL1        0.1767
     35 C          59.7807   95.1641   -6.8340 C.ar    1  UNL1        0.2360
     36 N          59.2774   96.5767   -6.8658 N.ar    1  UNL1       -0.2110
     37 C          57.8492   96.8560   -7.2293 C.ar    1  UNL1        0.1035
     38 C          56.9243   95.7226   -7.5610 C.ar    1  UNL1        0.0414
     39 C          57.4276   94.3100   -7.5292 C.ar    1  UNL1        0.1035
     40 N          58.8559   94.0307   -7.1657 N.ar    1  UNL1       -0.2110
@<TRIPOS>BOND
     1    28    29    1
     2    29    12    1
     3    12    13   ar
     4    13    14   ar
     5    14    18    1
     6    18    19   ar
     7    19    20   ar
     8    20    21   ar
     9    21    22   ar
    10    22    24    1
    11    24    25    1
    12    24    26    1
    13    24    27    1
    14    22    23   ar
    15    14    15   ar
    16    15    16   ar
    17    16    17   ar
    18    17     1    1
    19     1     2   ar
    20     2     3    2
    21     2     4   ar
    22     4     5   ar
    23     5     6   ar
    24     6     7   ar
    25     7     8   ar
    26     8    30    1
    27    30    31    2
    28    30    32    2
    29    30    33    1
    30    33    35    1
    31    35    36   ar
    32    36    37   ar
    33    37    38   ar
    34    38    39   ar
    35    39    40   ar
    36     8     9   ar
    37     9    10   ar
    38    10    11   ar
    39    17    12   ar
    40    11     1   ar
    41    23    18   ar
    42    11     6   ar
    43    40    35   ar
    44    33    34    1
@<TRIPOS>MOLECULE
*****
 40 44 0 0 0
SMALL
GASTEIGER

@<TRIPOS>ATOM
      1 N          62.3279   87.9932   11.0401 N.ar    1  UNL1       -0.2716
      2 C          61.5801   88.3506    9.7899 C.ar    1  UNL1        0.2649
      3 O          60.8643   87.2851    9.0136 O.2     1  UNL1       -0.2666
      4 C          61.5481   89.7733    9.3159 C.ar    1  UNL1        0.0611
      5 C          62.2639   90.8387   10.0921 C.ar    1  UNL1        0.0064
      6 C          63.0117   90.4814   11.3424 C.ar    1  UNL1        0.0177
      7 C          63.7274   91.5468   12.1186 C.ar    1  UNL1        0.0216
      8 C          64.4752   91.1894   13.3688 C.ar    1  UNL1        0.1253
      9 C          64.5072   89.7666   13.8428 C.ar    1  UNL1        0.0217
     10 C          63.7914   88.7012   13.0666 C.ar    1  UNL1        0.0190
     11 C          63.0437   89.0586   11.8164 C.ar    1  UNL1        0.0670
     12 C          62.8121   85.4811   10.5873 C.ar    1  UNL1        0.1547
     13 C          62.8441   84.0583   11.0613 C.ar    1  UNL1        0.0384
     14 C          62.4239   83.7248   12.4621 C.ar    1  UNL1        0.0031
     15 C          61.9716   84.8141   13.3889 C.ar    1  UNL1        0.0017
     16 C          61.9396   86.2369   12.9149 C.ar    1  UNL1        0.0207
     17 C          62.3599   86.5704   11.5141 C.ar    1  UNL1        0.1006
     18 C          62.4559   82.3021   12.9361 C.ar    1  UNL1        0.0000
     19 C          63.7626   81.5710   13.0269 C.ar    1  UNL1       -0.0000
     20 C          63.7946   80.1482   13.5009 C.ar    1  UNL1       -0.0001
     21 C          62.5199   79.4565   13.8841 C.ar    1  UNL1        0.0039
     22 C          61.2133   80.1875   13.7932 C.ar    1  UNL1        0.0714
     23 C          61.1813   81.6103   13.3192 C.ar    1  UNL1        0.0039
     24 C          59.9385   79.4958   14.1763 C.3     1  UNL1        0.4186
     25 F          58.6639   78.8041   14.5594 F       1  UNL1       -0.1659
     26 F          59.2125   80.8075   14.1286 F       1  UNL1       -0.1659
     27 F          60.6646   78.1841   14.2240 F       1  UNL1       -0.1659
     28 C          62.9683   84.8446    8.0732 C.3     1  UNL1        0.2525
     29 O          63.2323   85.8146    9.1865 O.3     1  UNL1       -0.4700
     30 S          65.1910   92.2548   14.1451 S.O2    1  UNL1        0.0758
     31 O          65.5723   92.9330   12.8627 O.2     1  UNL1       -0.1499
     32 O          64.8097   91.5767   15.4276 O.2     1  UNL1       -0.1499
     33 N          65.9068   93.3202   14.9214 N.pl3   1  UNL1       -0.1835
     34 H          65.3950   94.0390   15.3580 H       1  UNL1        0.1767
     35 C          67.4024   93.2905   15.0324 C.ar    1  UNL1        0.2360
     36 N          68.2035   92.3952   14.1342 N.ar    1  UNL1       -0.2110
     37 C          69.6990   92.3654   14.2453 C.ar    1  UNL1        0.1035
     38 C          70.3935   93.2310   15.2545 C.ar    1  UNL1        0.0414
     39 C          69.5925   94.1263   16.1526 C.ar    1  UNL1        0.1035
     40 N          68.0969   94.1560   16.0416 N.ar    1  UNL1       -0.2110
@<TRIPOS>BOND
     1    28    29    1
     2    29    12    1
     3    12    13   ar
     4    13    14   ar
     5    14    18    1
     6    18    19   ar
     7    19    20   ar
     8    20    21   ar
     9    21    22   ar
    10    22    24    1
    11    24    25    1
    12    24    26    1
    13    24    27    1
    14    22    23   ar
    15    14    15   ar
    16    15    16   ar
    17    16    17   ar
    18    17     1    1
    19     1     2   ar
    20     2     3    2
    21     2     4   ar
    22     4     5   ar
    23     5     6   ar
    24     6     7   ar
    25     7     8   ar
    26     8    30    1
    27    30    31    2
    28    30    32    2
    29    30    33    1
    30    33    35    1
    31    35    36   ar
    32    36    37   ar
    33    37    38   ar
    34    38    39   ar
    35    39    40   ar
    36     8     9   ar
    37     9    10   ar
    38    10    11   ar
    39    17    12   ar
    40    11     1   ar
    41    23    18   ar
    42    11     6   ar
    43    40    35   ar
    44    33    34    1
