@<TRIPOS>MOLECULE
*****
 25 27 0 0 0
SMALL
GASTEIGER

@<TRIPOS>ATOM
      1 C          64.6935   90.4711   13.9270 C.ar    1  UNL1        0.0593
      2 C          65.9393   91.2432   14.2460 C.ar    1  UNL1        0.0148
      3 C          66.4616   92.2592   13.2738 C.ar    1  UNL1       -0.0008
      4 C          65.7380   92.5030   11.9827 C.ar    1  UNL1        0.0054
      5 C          64.4922   91.7309   11.6637 C.ar    1  UNL1        0.1374
      6 F          63.7687   91.9747   10.3725 F       1  UNL1       -0.2045
      7 C          63.9700   90.7150   12.6358 C.ar    1  UNL1        0.0443
      8 C          66.2603   93.5190   11.0105 C.3     1  UNL1        0.0349
      9 C          65.8705   94.9606   11.1504 C.3     1  UNL1        0.0689
     10 C          66.3928   95.9766   10.1782 C.3     1  UNL1        0.2559
     11 S          67.3050   95.5508    9.0662 S.O     1  UNL1        0.0304
     12 O          67.8273   96.5667    8.0940 O.co2   1  UNL1       -0.6813
     13 C          67.6949   94.1091    8.9263 C.3     1  UNL1        0.2559
     14 C          67.1725   93.0932    9.8985 C.3     1  UNL1        0.0689
     15 C          63.6170   87.3400   15.9525 C.3     1  UNL1        0.2653
     16 C          64.2680   87.9653   14.7545 C.3     1  UNL1        0.1546
     17 N          64.1712   89.4552   14.8991 N.am    1  UNL1       -0.2207
     18 C          63.4604   89.7507   16.1866 C.2     1  UNL1        0.4092
     19 O          63.1472   91.1141   16.7279 O.2     1  UNL1       -0.2258
     20 O          63.1179   88.4435   16.8376 O.3     1  UNL1       -0.4268
     21 N          64.5275   84.9196   15.7023 N.am    1  UNL1       -0.3258
     22 C          63.4878   85.8695   16.2188 C.2     1  UNL1        0.2616
     23 O          62.3189   85.3489   17.0015 O.2     1  UNL1       -0.2714
     24 H          64.4427   83.9544   15.8771 H       1  UNL1        0.1451
     25 H          65.2947   85.2613   15.1886 H       1  UNL1        0.1451
@<TRIPOS>UNITY_ATOM_ATTR
11 1
charge 1
12 1
charge -1
@<TRIPOS>BOND
     1    21    22   am
     2    22    23    2
     3    15    22    1
     4    15    16    1
     5    16    17    1
     6    17     1    1
     7     1     2   ar
     8     2     3   ar
     9     3     4   ar
    10     8     4    1
    11     8     9    1
    12     9    10    1
    13    10    11    1
    14    11    12    2
    15    11    13    1
    16    13    14    1
    17     4     5   ar
    18     5     6    1
    19     5     7   ar
    20    17    18   am
    21    18    19    2
    22    18    20    1
    23    20    15    1
    24     7     1   ar
    25    14     8    1
    26    21    24    1
    27    21    25    1
@<TRIPOS>MOLECULE
*****
 25 27 0 0 0
SMALL
GASTEIGER

@<TRIPOS>ATOM
      1 C          64.3890   90.7044   13.1225 C.ar    1  UNL1        0.0593
      2 C          63.8985   89.3215   13.4338 C.ar    1  UNL1        0.0148
      3 C          63.0260   88.5966   12.4524 C.ar    1  UNL1       -0.0008
      4 C          62.6441   89.2546   11.1596 C.ar    1  UNL1        0.0054
      5 C          63.1346   90.6375   10.8484 C.ar    1  UNL1        0.1374
      6 F          62.7526   91.2955    9.5556 F       1  UNL1       -0.2045
      7 C          64.0071   91.3624   11.8298 C.ar    1  UNL1        0.0443
      8 C          61.7715   88.5296   10.1782 C.3     1  UNL1        0.0349
      9 C          62.0300   87.0847    9.8694 C.3     1  UNL1        0.0689
     10 C          61.1575   86.3598    8.8879 C.3     1  UNL1        0.2559
     11 S          60.0265   87.0798    8.2152 S.O     1  UNL1        0.0304
     12 O          59.1540   86.3549    7.2338 O.co2   1  UNL1       -0.6813
     13 C          59.7681   88.5248    8.5240 C.3     1  UNL1        0.2559
     14 C          60.6406   89.2497    9.5055 C.3     1  UNL1        0.0689
     15 C          67.1567   92.5661   15.1075 C.3     1  UNL1        0.2653
     16 C          66.6683   91.8897   13.8609 C.3     1  UNL1        0.1546
     17 N          65.2615   91.4293   14.1040 N.am    1  UNL1       -0.2207
     18 C          64.8805   91.8212   15.5009 C.2     1  UNL1        0.4092
     19 O          63.5600   91.5569   16.1616 O.2     1  UNL1       -0.2258
     20 O          66.0517   92.5237   16.1211 O.3     1  UNL1       -0.4268
     21 N          69.6924   92.6467   14.5474 N.am    1  UNL1       -0.3258
     22 C          68.5120   93.1774   15.3057 C.2     1  UNL1        0.2616
     23 O          68.6869   94.3195   16.2622 O.2     1  UNL1       -0.2714
     24 H          70.5819   93.0479   14.6775 H       1  UNL1        0.1451
     25 H          69.5776   91.8971   13.9196 H       1  UNL1        0.1451
@<TRIPOS>UNITY_ATOM_ATTR
11 1
charge 1
12 1
charge -1
@<TRIPOS>BOND
     1    21    22   am
     2    22    23    2
     3    15    22    1
     4    15    16    1
     5    16    17    1
     6    17     1    1
     7     1     2   ar
     8     2     3   ar
     9     3     4   ar
    10     8     4    1
    11     8     9    1
    12     9    10    1
    13    10    11    1
    14    11    12    2
    15    11    13    1
    16    13    14    1
    17     4     5   ar
    18     5     6    1
    19     5     7   ar
    20    17    18   am
    21    18    19    2
    22    18    20    1
    23    20    15    1
    24     7     1   ar
    25    14     8    1
    26    21    24    1
    27    21    25    1
@<TRIPOS>MOLECULE
*****
 25 27 0 0 0
SMALL
GASTEIGER

@<TRIPOS>ATOM
      1 C          62.6843   89.4027   11.7032 C.ar    1  UNL1        0.0593
      2 C          63.1646   90.7417   11.2274 C.ar    1  UNL1        0.0148
      3 C          64.2293   91.4714   11.9914 C.ar    1  UNL1       -0.0008
      4 C          64.8137   90.8622   13.2313 C.ar    1  UNL1        0.0054
      5 C          64.3335   89.5232   13.7071 C.ar    1  UNL1        0.1374
      6 F          64.9179   88.9139   14.9469 F       1  UNL1       -0.2045
      7 C          63.2688   88.7935   12.9430 C.ar    1  UNL1        0.0443
      8 C          65.8785   91.5920   13.9954 C.3     1  UNL1        0.0349
      9 C          65.6212   92.0320   15.4061 C.3     1  UNL1        0.0689
     10 C          66.6860   92.7618   16.1701 C.3     1  UNL1        0.2559
     11 S          68.0080   93.0515   15.5234 S.O     1  UNL1        0.0304
     12 O          69.0728   93.7813   16.2874 O.co2   1  UNL1       -0.6813
     13 C          68.2653   92.6115   14.1126 C.3     1  UNL1        0.2559
     14 C          67.2006   91.8817   13.3486 C.3     1  UNL1        0.0689
     15 C          60.4924   87.3308    9.2601 C.3     1  UNL1        0.2653
     16 C          61.8209   87.8895    9.6759 C.3     1  UNL1        0.1546
     17 N          61.6195   88.6729   10.9391 N.am    1  UNL1       -0.2207
     18 C          60.1665   88.5985   11.3041 C.2     1  UNL1        0.4092
     19 O          59.5231   89.2407   12.4972 O.2     1  UNL1       -0.2258
     20 O          59.4699   87.7690   10.2665 O.3     1  UNL1       -0.4268
     21 N          58.8560   86.4270    7.4558 N.am    1  UNL1       -0.3258
     22 C          60.2320   86.4829    8.0505 C.2     1  UNL1        0.2616
     23 O          61.3476   85.6908    7.4356 O.2     1  UNL1       -0.2714
     24 H          58.6851   85.8704    6.6619 H       1  UNL1        0.1451
     25 H          58.1238   86.9469    7.8594 H       1  UNL1        0.1451
@<TRIPOS>UNITY_ATOM_ATTR
11 1
charge 1
12 1
charge -1
@<TRIPOS>BOND
     1    21    22   am
     2    22    23    2
     3    15    22    1
     4    15    16    1
     5    16    17    1
     6    17     1    1
     7     1     2   ar
     8     2     3   ar
     9     3     4   ar
    10     8     4    1
    11     8     9    1
    12     9    10    1
    13    10    11    1
    14    11    12    2
    15    11    13    1
    16    13    14    1
    17     4     5   ar
    18     5     6    1
    19     5     7   ar
    20    17    18   am
    21    18    19    2
    22    18    20    1
    23    20    15    1
    24     7     1   ar
    25    14     8    1
    26    21    24    1
    27    21    25    1
@<TRIPOS>MOLECULE
*****
 25 27 0 0 0
SMALL
GASTEIGER

@<TRIPOS>ATOM
      1 C          62.7227   89.8372   11.3064 C.ar    1  UNL1        0.0593
      2 C          63.1266   89.1869   12.5963 C.ar    1  UNL1        0.0148
      3 C          64.1918   89.8100   13.4490 C.ar    1  UNL1       -0.0008
      4 C          64.8530   91.0835   13.0118 C.ar    1  UNL1        0.0054
      5 C          64.4491   91.7337   11.7219 C.ar    1  UNL1        0.1374
      6 F          65.1104   93.0072   11.2847 F       1  UNL1       -0.2045
      7 C          63.3840   91.1106   10.8692 C.ar    1  UNL1        0.0443
      8 C          65.9182   91.7066   13.8646 C.3     1  UNL1        0.0349
      9 C          67.2994   91.9043   13.3141 C.3     1  UNL1        0.0689
     10 C          68.3646   92.5274   14.1669 C.3     1  UNL1        0.2559
     11 S          68.0485   92.9528   15.5701 S.O     1  UNL1        0.0304
     12 O          69.1136   93.5759   16.4229 O.co2   1  UNL1       -0.6813
     13 C          66.6672   92.7551   16.1206 C.3     1  UNL1        0.2559
     14 C          65.6021   92.1320   15.2678 C.3     1  UNL1        0.0689
     15 C          60.4995   87.7190    8.9323 C.3     1  UNL1        0.2653
     16 C          61.8097   87.9804    9.6141 C.3     1  UNL1        0.1546
     17 N          61.6575   89.2141   10.4536 N.am    1  UNL1       -0.2207
     18 C          60.2532   89.7152   10.2907 C.2     1  UNL1        0.4092
     19 O          59.6673   90.9275   10.9519 O.2     1  UNL1       -0.2258
     20 O          59.5374   88.7913    9.3505 O.3     1  UNL1       -0.4268
     21 N          58.8073   86.3765    7.4887 N.am    1  UNL1       -0.3258
     22 C          60.2032   86.5847    7.9966 C.2     1  UNL1        0.2616
     23 O          61.3029   85.6586    7.5689 O.2     1  UNL1       -0.2714
     24 H          58.6129   85.6320    6.8745 H       1  UNL1        0.1451
     25 H          58.0855   86.9844    7.7694 H       1  UNL1        0.1451
@<TRIPOS>UNITY_ATOM_ATTR
11 1
charge 1
12 1
charge -1
@<TRIPOS>BOND
     1    21    22   am
     2    22    23    2
     3    15    22    1
     4    15    16    1
     5    16    17    1
     6    17     1    1
     7     1     2   ar
     8     2     3   ar
     9     3     4   ar
    10     8     4    1
    11     8     9    1
    12     9    10    1
    13    10    11    1
    14    11    12    2
    15    11    13    1
    16    13    14    1
    17     4     5   ar
    18     5     6    1
    19     5     7   ar
    20    17    18   am
    21    18    19    2
    22    18    20    1
    23    20    15    1
    24     7     1   ar
    25    14     8    1
    26    21    24    1
    27    21    25    1
@<TRIPOS>MOLECULE
*****
 25 27 0 0 0
SMALL
GASTEIGER

@<TRIPOS>ATOM
      1 C          62.7542   89.1176   11.5249 C.ar    1  UNL1        0.0593
      2 C          63.1113   90.5083   11.0908 C.ar    1  UNL1        0.0148
      3 C          64.0638   91.3282   11.9096 C.ar    1  UNL1       -0.0008
      4 C          64.6593   90.7574   13.1624 C.ar    1  UNL1        0.0054
      5 C          64.3022   89.3667   13.5965 C.ar    1  UNL1        0.1374
      6 F          64.8977   88.7960   14.8494 F       1  UNL1       -0.2045
      7 C          63.3496   88.5469   12.7778 C.ar    1  UNL1        0.0443
      8 C          65.6119   91.5774   13.9812 C.3     1  UNL1        0.0349
      9 C          66.8697   92.1083   13.3600 C.3     1  UNL1        0.0689
     10 C          67.8223   92.9283   14.1788 C.3     1  UNL1        0.2559
     11 S          67.5170   93.2172   15.6187 S.O     1  UNL1        0.0304
     12 O          68.4695   94.0372   16.4374 O.co2   1  UNL1       -0.6813
     13 C          66.2591   92.6862   16.2398 C.3     1  UNL1        0.2559
     14 C          65.3066   91.8663   15.4211 C.3     1  UNL1        0.0689
     15 C          60.2178   87.6235    8.9951 C.3     1  UNL1        0.2653
     16 C          61.0508   88.7663    9.4950 C.3     1  UNL1        0.1546
     17 N          61.8016   88.2977   10.7062 N.am    1  UNL1       -0.2207
     18 C          61.4325   86.8652   10.9548 C.2     1  UNL1        0.4092
     19 O          61.9512   86.0012   12.0658 O.2     1  UNL1       -0.2258
     20 O          60.4537   86.4485    9.8973 O.3     1  UNL1       -0.4268
     21 N          58.6041   86.3998    7.3676 N.am    1  UNL1       -0.3258
     22 C          59.3085   87.6507    7.8025 C.2     1  UNL1        0.2616
     23 O          59.1036   88.9289    7.0447 O.2     1  UNL1       -0.2714
     24 H          58.0073   86.4177    6.5848 H       1  UNL1        0.1451
     25 H          58.7386   85.5609    7.8649 H       1  UNL1        0.1451
@<TRIPOS>UNITY_ATOM_ATTR
11 1
charge 1
12 1
charge -1
@<TRIPOS>BOND
     1    21    22   am
     2    22    23    2
     3    15    22    1
     4    15    16    1
     5    16    17    1
     6    17     1    1
     7     1     2   ar
     8     2     3   ar
     9     3     4   ar
    10     8     4    1
    11     8     9    1
    12     9    10    1
    13    10    11    1
    14    11    12    2
    15    11    13    1
    16    13    14    1
    17     4     5   ar
    18     5     6    1
    19     5     7   ar
    20    17    18   am
    21    18    19    2
    22    18    20    1
    23    20    15    1
    24     7     1   ar
    25    14     8    1
    26    21    24    1
    27    21    25    1
@<TRIPOS>MOLECULE
*****
 25 27 0 0 0
SMALL
GASTEIGER

@<TRIPOS>ATOM
      1 C          63.9908   88.0366   14.1384 C.ar    1  UNL1        0.0593
      2 C          63.3289   87.8653   12.8034 C.ar    1  UNL1        0.0148
      3 C          63.1381   86.4918   12.2316 C.ar    1  UNL1       -0.0008
      4 C          63.6093   85.2896   12.9949 C.ar    1  UNL1        0.0054
      5 C          64.2712   85.4608   14.3299 C.ar    1  UNL1        0.1374
      6 F          64.7424   84.2586   15.0932 F       1  UNL1       -0.2045
      7 C          64.4620   86.8344   14.9017 C.ar    1  UNL1        0.0443
      8 C          63.4185   83.9160   12.4230 C.3     1  UNL1        0.0349
      9 C          62.5922   82.9046   13.1607 C.3     1  UNL1        0.0689
     10 C          62.4014   81.5310   12.5888 C.3     1  UNL1        0.2559
     11 S          63.0369   81.1689   11.2793 S.O     1  UNL1        0.0304
     12 O          62.8462   79.7954   10.7074 O.co2   1  UNL1       -0.6813
     13 C          63.8633   82.1804   10.5416 C.3     1  UNL1        0.2559
     14 C          64.0541   83.5539   11.1135 C.3     1  UNL1        0.0689
     15 C          65.1041   91.6035   15.1893 C.3     1  UNL1        0.2653
     16 C          65.3112   90.3463   14.3976 C.3     1  UNL1        0.1546
     17 N          64.1816   89.4102   14.7103 N.am    1  UNL1       -0.2207
     18 C          63.2764   90.0888   15.6952 C.2     1  UNL1        0.4092
     19 O          62.0214   89.5130   16.2812 O.2     1  UNL1       -0.2258
     20 O          63.8465   91.4443   15.9912 O.3     1  UNL1       -0.4268
     21 N          66.8392   93.1266   16.3807 N.am    1  UNL1       -0.3258
     22 C          65.9977   92.8082   15.1805 C.2     1  UNL1        0.2616
     23 O          66.0497   93.6946   13.9715 O.2     1  UNL1       -0.2714
     24 H          67.4256   93.9173   16.3750 H       1  UNL1        0.1451
     25 H          66.8050   92.5448   17.1742 H       1  UNL1        0.1451
@<TRIPOS>UNITY_ATOM_ATTR
11 1
charge 1
12 1
charge -1
@<TRIPOS>BOND
     1    21    22   am
     2    22    23    2
     3    15    22    1
     4    15    16    1
     5    16    17    1
     6    17     1    1
     7     1     2   ar
     8     2     3   ar
     9     3     4   ar
    10     8     4    1
    11     8     9    1
    12     9    10    1
    13    10    11    1
    14    11    12    2
    15    11    13    1
    16    13    14    1
    17     4     5   ar
    18     5     6    1
    19     5     7   ar
    20    17    18   am
    21    18    19    2
    22    18    20    1
    23    20    15    1
    24     7     1   ar
    25    14     8    1
    26    21    24    1
    27    21    25    1
@<TRIPOS>MOLECULE
*****
 25 27 0 0 0
SMALL
GASTEIGER

@<TRIPOS>ATOM
      1 C          63.4620   89.4875   12.5444 C.ar    1  UNL1        0.0593
      2 C          63.0451   90.0764   11.2294 C.ar    1  UNL1        0.0148
      3 C          62.5574   89.1824   10.1281 C.ar    1  UNL1       -0.0008
      4 C          62.4864   87.6994   10.3419 C.ar    1  UNL1        0.0054
      5 C          62.9032   87.1105   11.6570 C.ar    1  UNL1        0.1374
      6 F          62.8323   85.6275   11.8707 F       1  UNL1       -0.2045
      7 C          63.3910   88.0045   12.7582 C.ar    1  UNL1        0.0443
      8 C          61.9986   86.8054    9.2406 C.3     1  UNL1        0.0349
      9 C          60.5681   86.8765    8.7950 C.3     1  UNL1        0.0689
     10 C          60.0803   85.9824    7.6937 C.3     1  UNL1        0.2559
     11 S          61.0230   85.0174    7.0380 S.O     1  UNL1        0.0304
     12 O          60.5353   84.1234    5.9368 O.co2   1  UNL1       -0.6813
     13 C          62.4536   84.9463    7.4837 C.3     1  UNL1        0.2559
     14 C          62.9413   85.8403    8.5849 C.3     1  UNL1        0.0689
     15 C          65.2157   92.0458   14.8779 C.3     1  UNL1        0.2653
     16 C          65.0701   91.3739   13.5448 C.3     1  UNL1        0.1546
     17 N          63.9498   90.3815   13.6457 N.am    1  UNL1       -0.2207
     18 C          63.4030   90.4401   15.0412 C.2     1  UNL1        0.4092
     19 O          62.2724   89.6150   15.5806 O.2     1  UNL1       -0.2258
     20 O          64.1853   91.4687   15.8028 O.3     1  UNL1       -0.4268
     21 N          66.9079   93.0807   16.5557 N.am    1  UNL1       -0.3258
     22 C          66.2159   93.1083   15.2252 C.2     1  UNL1        0.2616
     23 O          66.5241   94.1983   14.2419 O.2     1  UNL1       -0.2714
     24 H          67.5644   93.7781   16.7837 H       1  UNL1        0.1451
     25 H          66.7057   92.3653   17.2011 H       1  UNL1        0.1451
@<TRIPOS>UNITY_ATOM_ATTR
11 1
charge 1
12 1
charge -1
@<TRIPOS>BOND
     1    21    22   am
     2    22    23    2
     3    15    22    1
     4    15    16    1
     5    16    17    1
     6    17     1    1
     7     1     2   ar
     8     2     3   ar
     9     3     4   ar
    10     8     4    1
    11     8     9    1
    12     9    10    1
    13    10    11    1
    14    11    12    2
    15    11    13    1
    16    13    14    1
    17     4     5   ar
    18     5     6    1
    19     5     7   ar
    20    17    18   am
    21    18    19    2
    22    18    20    1
    23    20    15    1
    24     7     1   ar
    25    14     8    1
    26    21    24    1
    27    21    25    1
@<TRIPOS>MOLECULE
*****
 25 27 0 0 0
SMALL
GASTEIGER

@<TRIPOS>ATOM
      1 C          63.9711   88.2738   13.5326 C.ar    1  UNL1        0.0593
      2 C          63.1969   87.7285   12.3693 C.ar    1  UNL1        0.0148
      3 C          62.8881   86.2626   12.2950 C.ar    1  UNL1       -0.0008
      4 C          63.3533   85.3419   13.3840 C.ar    1  UNL1        0.0054
      5 C          64.1275   85.8872   14.5473 C.ar    1  UNL1        0.1374
      6 F          64.5928   84.9665   15.6363 F       1  UNL1       -0.2045
      7 C          64.4364   87.3531   14.6216 C.ar    1  UNL1        0.0443
      8 C          63.0444   83.8759   13.3097 C.3     1  UNL1        0.0349
      9 C          62.3073   83.2069   14.4317 C.3     1  UNL1        0.0689
     10 C          61.9984   81.7409   14.3574 C.3     1  UNL1        0.2559
     11 S          62.4266   80.9439   13.1609 S.O     1  UNL1        0.0304
     12 O          62.1177   79.4780   13.0865 O.co2   1  UNL1       -0.6813
     13 C          63.1638   81.6130   12.0388 C.3     1  UNL1        0.2559
     14 C          63.4726   83.0789   12.1132 C.3     1  UNL1        0.0689
     15 C          65.2614   91.8618   14.2587 C.3     1  UNL1        0.2653
     16 C          65.2802   90.3849   14.5200 C.3     1  UNL1        0.1546
     17 N          64.2801   89.7398   13.6070 N.am    1  UNL1       -0.2207
     18 C          63.6431   90.8180   12.7814 C.2     1  UNL1        0.4092
     19 O          62.5854   90.6197   11.7364 O.2     1  UNL1       -0.2258
     20 O          64.2496   92.1295   13.1841 O.3     1  UNL1       -0.4268
     21 N          66.2463   92.8647   16.4437 N.am    1  UNL1       -0.3258
     22 C          66.1060   92.8904   14.9505 C.2     1  UNL1        0.2616
     23 O          66.8103   93.9447   14.1491 O.2     1  UNL1       -0.2714
     24 H          66.8006   93.5398   16.8978 H       1  UNL1        0.1451
     25 H          65.7840   92.1727   16.9697 H       1  UNL1        0.1451
@<TRIPOS>UNITY_ATOM_ATTR
11 1
charge 1
12 1
charge -1
@<TRIPOS>BOND
     1    21    22   am
     2    22    23    2
     3    15    22    1
     4    15    16    1
     5    16    17    1
     6    17     1    1
     7     1     2   ar
     8     2     3   ar
     9     3     4   ar
    10     8     4    1
    11     8     9    1
    12     9    10    1
    13    10    11    1
    14    11    12    2
    15    11    13    1
    16    13    14    1
    17     4     5   ar
    18     5     6    1
    19     5     7   ar
    20    17    18   am
    21    18    19    2
    22    18    20    1
    23    20    15    1
    24     7     1   ar
    25    14     8    1
    26    21    24    1
    27    21    25    1
@<TRIPOS>MOLECULE
*****
 25 27 0 0 0
SMALL
GASTEIGER

@<TRIPOS>ATOM
      1 C          63.9829   88.2548   13.5529 C.ar    1  UNL1        0.0593
      2 C          64.4517   87.3329   14.6393 C.ar    1  UNL1        0.0148
      3 C          64.1454   85.8666   14.5626 C.ar    1  UNL1       -0.0008
      4 C          63.3703   85.3221   13.3996 C.ar    1  UNL1        0.0054
      5 C          62.9015   86.2440   12.3131 C.ar    1  UNL1        0.1374
      6 F          62.1264   85.6995   11.1501 F       1  UNL1       -0.2045
      7 C          63.2078   87.7103   12.3898 C.ar    1  UNL1        0.0443
      8 C          63.0640   83.8557   13.3229 C.3     1  UNL1        0.0349
      9 C          63.5054   83.0586   12.1314 C.3     1  UNL1        0.0689
     10 C          63.1991   81.5921   12.0548 C.3     1  UNL1        0.2559
     11 S          62.4514   80.9229   13.1697 S.O     1  UNL1        0.0304
     12 O          62.1451   79.4565   13.0931 O.co2   1  UNL1       -0.6813
     13 C          62.0100   81.7200   14.3613 C.3     1  UNL1        0.2559
     14 C          62.3163   83.1864   14.4378 C.3     1  UNL1        0.0689
     15 C          65.2656   91.8442   14.2857 C.3     1  UNL1        0.2653
     16 C          65.2863   90.3670   14.5454 C.3     1  UNL1        0.1546
     17 N          64.2892   89.7213   13.6295 N.am    1  UNL1       -0.2207
     18 C          63.6522   90.7994   12.8038 C.2     1  UNL1        0.4092
     19 O          62.5970   90.6004   11.7564 O.2     1  UNL1       -0.2258
     20 O          64.2556   92.1114   13.2093 O.3     1  UNL1       -0.4268
     21 N          66.2123   92.8705   16.4767 N.am    1  UNL1       -0.3258
     22 C          66.1070   92.8734   14.9804 C.2     1  UNL1        0.2616
     23 O          66.8432   93.9056   14.1788 O.2     1  UNL1       -0.2714
     24 H          66.7646   93.5460   16.9326 H       1  UNL1        0.1451
     25 H          65.7292   92.1930   17.0028 H       1  UNL1        0.1451
@<TRIPOS>UNITY_ATOM_ATTR
11 1
charge 1
12 1
charge -1
@<TRIPOS>BOND
     1    21    22   am
     2    22    23    2
     3    15    22    1
     4    15    16    1
     5    16    17    1
     6    17     1    1
     7     1     2   ar
     8     2     3   ar
     9     3     4   ar
    10     8     4    1
    11     8     9    1
    12     9    10    1
    13    10    11    1
    14    11    12    2
    15    11    13    1
    16    13    14    1
    17     4     5   ar
    18     5     6    1
    19     5     7   ar
    20    17    18   am
    21    18    19    2
    22    18    20    1
    23    20    15    1
    24     7     1   ar
    25    14     8    1
    26    21    24    1
    27    21    25    1
