@<TRIPOS>MOLECULE
*****
 38 42 0 0 0
SMALL
GASTEIGER

@<TRIPOS>ATOM
      1 C          64.5616   90.5780   12.9419 C.ar    1  UNL1        0.0175
      2 C          63.8112   90.6475   11.6449 C.ar    1  UNL1        0.0012
      3 C          63.0764   89.4421   11.1379 C.ar    1  UNL1       -0.0029
      4 C          63.0920   88.1670   11.9280 C.ar    1  UNL1       -0.0085
      5 C          63.8423   88.0975   13.2248 C.ar    1  UNL1       -0.0246
      6 C          64.5771   89.3029   13.7319 C.ar    1  UNL1       -0.0030
      7 C          63.9855   86.9345   14.1613 C.3     1  UNL1        0.0261
      8 C          63.4137   85.5537   14.0320 C.3     1  UNL1        0.0047
      9 C          62.5576   84.9951   12.9344 C.3     1  UNL1        0.0024
     10 C          62.0617   85.6791   11.6950 C.3     1  UNL1        0.0241
     11 C          62.2995   87.0908   11.2470 C.3     1  UNL1        0.0942
     12 C          66.1049   94.2301   13.1164 C.ar    1  UNL1        0.2207
     13 N          66.7658   94.1945   14.4624 N.ar    1  UNL1       -0.2120
     14 C          66.6920   92.9534   15.3016 C.ar    1  UNL1        0.1034
     15 C          65.9573   91.7478   14.7948 C.ar    1  UNL1        0.0399
     16 C          65.2963   91.7834   13.4488 C.ar    1  UNL1        0.0857
     17 N          65.3701   93.0245   12.6096 N.ar    1  UNL1       -0.2135
     18 N          66.1786   95.4712   12.2772 N.pl3   1  UNL1       -0.2801
     19 H          66.0728   96.3557   12.6962 H       1  UNL1        0.1552
     20 C          66.0668   96.4550    7.0906 C.3     1  UNL1        0.1538
     21 N          66.3621   95.8168    8.4156 N.ar    1  UNL1       -0.2460
     22 C          65.8835   96.2991    9.7528 C.ar    1  UNL1        0.1114
     23 C          66.4135   95.3645   10.7995 C.ar    1  UNL1        0.0906
     24 C          67.2197   94.3045   10.1092 C.ar    1  UNL1        0.1363
     25 N          67.1879   94.5840    8.6358 N.ar    1  UNL1       -0.1662
     26 N          61.6604   87.4772    9.9463 N.am    1  UNL1       -0.2948
     27 C          60.3021   88.1138    9.9379 C.2     1  UNL1        0.3024
     28 O          59.5831   88.3638   11.2303 O.2     1  UNL1       -0.2649
     29 H          62.1324   87.3131    9.0980 H       1  UNL1        0.1501
     30 C          59.6630   88.5003    8.6370 C.ar    1  UNL1        0.3134
     31 N          59.9735   89.7276    7.8325 N.ar    1  UNL1       -0.1873
     32 C          59.1036   89.7131    6.6106 C.ar    1  UNL1        0.1801
     33 N          58.2556   88.4769    6.6599 N.ar    1  UNL1       -0.0601
     34 O          58.6013   87.7273    7.9123 O.2     1  UNL1       -0.3279
     35 C          59.0851   90.7525    5.5292 C.3     1  UNL1        0.0557
     36 C          60.5842   90.7300    5.4819 C.3     1  UNL1        0.0077
     37 C          57.5860   90.7751    5.5765 C.3     1  UNL1        0.0077
     38 C          59.0667   91.7919    4.4479 C.3     1  UNL1        0.0077
@<TRIPOS>BOND
     1    20    21    1
     2    21    22   ar
     3    22    23   ar
     4    23    18    1
     5    18    12    1
     6    12    13   ar
     7    13    14   ar
     8    14    15   ar
     9    15    16   ar
    10    16     1    1
    11     1     2   ar
    12     2     3   ar
    13     3     4   ar
    14     4     5   ar
    15     5     6   ar
    16     5     7    1
    17     7     8    1
    18     8     9    1
    19     9    10    1
    20    10    11    1
    21    11    26    1
    22    26    27   am
    23    27    28    2
    24    27    30    1
    25    30    31   ar
    26    31    32   ar
    27    32    35    1
    28    35    36    1
    29    35    37    1
    30    35    38    1
    31    32    33   ar
    32    33    34   ar
    33    16    17   ar
    34    23    24   ar
    35    24    25   ar
    36    25    21   ar
    37    17    12   ar
    38     6     1   ar
    39    34    30   ar
    40    11     4    1
    41    18    19    1
    42    26    29    1
@<TRIPOS>MOLECULE
*****
 38 42 0 0 0
SMALL
GASTEIGER

@<TRIPOS>ATOM
      1 C          61.7014   86.7929   10.3687 C.ar    1  UNL1        0.0175
      2 C          62.4020   88.0083   10.8996 C.ar    1  UNL1        0.0012
      3 C          63.1726   87.9287   12.1841 C.ar    1  UNL1       -0.0029
      4 C          63.2424   86.6335   12.9377 C.ar    1  UNL1       -0.0085
      5 C          62.5418   85.4182   12.4068 C.ar    1  UNL1       -0.0246
      6 C          61.7713   85.4978   11.1223 C.ar    1  UNL1       -0.0030
      7 C          62.4843   84.0398   12.9958 C.3     1  UNL1        0.0261
      8 C          63.1133   83.5365   14.2612 C.3     1  UNL1        0.0047
      9 C          63.9550   84.2872   15.2499 C.3     1  UNL1        0.0024
     10 C          64.3758   85.7266   15.2178 C.3     1  UNL1        0.0241
     11 C          64.0587   86.7708   14.1887 C.3     1  UNL1        0.0942
     12 C          59.3220   88.1601    7.5017 C.ar    1  UNL1        0.2207
     13 N          59.3897   87.0322    6.5153 N.ar    1  UNL1       -0.2120
     14 C          60.2280   85.8245    6.8132 C.ar    1  UNL1        0.1034
     15 C          60.9986   85.7447    8.0977 C.ar    1  UNL1        0.0399
     16 C          60.9309   86.8726    9.0842 C.ar    1  UNL1        0.0857
     17 N          60.0926   88.0803    8.7862 N.ar    1  UNL1       -0.2135
     18 N          58.4838   89.3678    7.2037 N.pl3   1  UNL1       -0.2801
     19 H          57.6767   89.5506    7.7370 H       1  UNL1        0.1552
     20 C          61.3464   91.9945    3.6278 C.3     1  UNL1        0.1538
     21 N          60.1911   91.5044    4.4496 N.ar    1  UNL1       -0.2460
     22 C          60.2595   90.4831    5.5460 C.ar    1  UNL1        0.1114
     23 C          58.8753   90.2971    6.0932 C.ar    1  UNL1        0.0906
     24 C          57.9515   91.2035    5.3350 C.ar    1  UNL1        0.1363
     25 N          58.7647   91.9497    4.3191 N.ar    1  UNL1       -0.1662
     26 N          64.6338   88.1323   14.4444 N.am    1  UNL1       -0.2948
     27 C          63.9240   89.0868   15.3585 C.2     1  UNL1        0.3024
     28 O          62.6392   88.6796   16.0167 O.2     1  UNL1       -0.2649
     29 H          65.4771   88.3996   14.0124 H       1  UNL1        0.1501
     30 C          64.4992   90.4484   15.6142 C.ar    1  UNL1        0.3134
     31 N          65.8556   90.9266   15.1884 N.ar    1  UNL1       -0.1873
     32 C          66.0137   92.3445   15.6516 C.ar    1  UNL1        0.1801
     33 N          64.7550   92.7425   16.3637 N.ar    1  UNL1       -0.0601
     34 O          63.8190   91.5707   16.3406 O.2     1  UNL1       -0.3279
     35 C          67.2190   93.2120   15.4399 C.3     1  UNL1        0.0557
     36 C          67.8944   92.5589   16.6092 C.3     1  UNL1        0.0077
     37 C          66.5436   93.8650   14.2705 C.3     1  UNL1        0.0077
     38 C          68.4243   94.0794   15.2282 C.3     1  UNL1        0.0077
@<TRIPOS>BOND
     1    20    21    1
     2    21    22   ar
     3    22    23   ar
     4    23    18    1
     5    18    12    1
     6    12    13   ar
     7    13    14   ar
     8    14    15   ar
     9    15    16   ar
    10    16     1    1
    11     1     2   ar
    12     2     3   ar
    13     3     4   ar
    14     4     5   ar
    15     5     6   ar
    16     5     7    1
    17     7     8    1
    18     8     9    1
    19     9    10    1
    20    10    11    1
    21    11    26    1
    22    26    27   am
    23    27    28    2
    24    27    30    1
    25    30    31   ar
    26    31    32   ar
    27    32    35    1
    28    35    36    1
    29    35    37    1
    30    35    38    1
    31    32    33   ar
    32    33    34   ar
    33    16    17   ar
    34    23    24   ar
    35    24    25   ar
    36    25    21   ar
    37    17    12   ar
    38     6     1   ar
    39    34    30   ar
    40    11     4    1
    41    18    19    1
    42    26    29    1
@<TRIPOS>MOLECULE
*****
 38 42 0 0 0
SMALL
GASTEIGER

@<TRIPOS>ATOM
      1 C          63.5712   90.6023   12.0975 C.ar    1  UNL1        0.0175
      2 C          63.1496   91.2853   10.8304 C.ar    1  UNL1        0.0012
      3 C          62.3378   90.5415    9.8116 C.ar    1  UNL1       -0.0029
      4 C          61.9477   89.1145   10.0601 C.ar    1  UNL1       -0.0085
      5 C          62.3693   88.4316   11.3272 C.ar    1  UNL1       -0.0246
      6 C          63.1810   89.1753   12.3460 C.ar    1  UNL1       -0.0030
      7 C          62.0896   87.0258   11.7696 C.3     1  UNL1        0.0261
      8 C          61.3192   85.9559   11.0540 C.3     1  UNL1        0.0047
      9 C          60.6384   86.0276    9.7195 C.3     1  UNL1        0.0024
     10 C          60.5596   87.1867    8.7707 C.3     1  UNL1        0.0241
     11 C          61.1423   88.5606    8.9223 C.3     1  UNL1        0.0942
     12 C          65.9701   93.3091   13.7311 C.ar    1  UNL1        0.2207
     13 N          66.0064   92.8341   15.1534 N.ar    1  UNL1       -0.2120
     14 C          65.2311   91.6151   15.5571 C.ar    1  UNL1        0.1034
     15 C          64.4193   90.8712   14.5385 C.ar    1  UNL1        0.0399
     16 C          64.3829   91.3461   13.1162 C.ar    1  UNL1        0.0857
     17 N          65.1583   92.5651   12.7125 N.ar    1  UNL1       -0.2135
     18 N          66.7454   94.5280   13.3274 N.pl3   1  UNL1       -0.2801
     19 H          67.3650   94.9509   13.9651 H       1  UNL1        0.1552
     20 C          66.9401   95.1546    8.0881 C.3     1  UNL1        0.1538
     21 N          66.6663   95.3906    9.5439 N.ar    1  UNL1       -0.2460
     22 C          67.0423   94.4756   10.6714 C.ar    1  UNL1        0.1114
     23 C          66.5768   95.1027   11.9521 C.ar    1  UNL1        0.0906
     24 C          65.9132   96.4052   11.6161 C.ar    1  UNL1        0.1363
     25 N          65.9685   96.5832   10.1277 N.ar    1  UNL1       -0.1662
     26 N          60.8857   89.5054    7.7859 N.am    1  UNL1       -0.2948
     27 C          59.6023   89.4193    7.0142 C.2     1  UNL1        0.3024
     28 O          58.5755   88.3885    7.3790 O.2     1  UNL1       -0.2649
     29 H          61.5596   90.1819    7.5465 H       1  UNL1        0.1501
     30 C          59.3457   90.3642    5.8777 C.ar    1  UNL1        0.3134
     31 N          60.3771   90.9109    4.9358 N.ar    1  UNL1       -0.1873
     32 C          59.6816   91.8128    3.9597 C.ar    1  UNL1        0.1801
     33 N          58.2204   91.8235    4.2984 N.ar    1  UNL1       -0.0601
     34 O          58.0128   90.9282    5.4838 O.2     1  UNL1       -0.3279
     35 C          60.3330   92.5709    2.8412 C.3     1  UNL1        0.0557
     36 C          58.9850   92.8503    2.2455 C.3     1  UNL1        0.0077
     37 C          61.6810   92.2915    3.4368 C.3     1  UNL1        0.0077
     38 C          60.9843   93.3290    1.7227 C.3     1  UNL1        0.0077
@<TRIPOS>BOND
     1    20    21    1
     2    21    22   ar
     3    22    23   ar
     4    23    18    1
     5    18    12    1
     6    12    13   ar
     7    13    14   ar
     8    14    15   ar
     9    15    16   ar
    10    16     1    1
    11     1     2   ar
    12     2     3   ar
    13     3     4   ar
    14     4     5   ar
    15     5     6   ar
    16     5     7    1
    17     7     8    1
    18     8     9    1
    19     9    10    1
    20    10    11    1
    21    11    26    1
    22    26    27   am
    23    27    28    2
    24    27    30    1
    25    30    31   ar
    26    31    32   ar
    27    32    35    1
    28    35    36    1
    29    35    37    1
    30    35    38    1
    31    32    33   ar
    32    33    34   ar
    33    16    17   ar
    34    23    24   ar
    35    24    25   ar
    36    25    21   ar
    37    17    12   ar
    38     6     1   ar
    39    34    30   ar
    40    11     4    1
    41    18    19    1
    42    26    29    1
@<TRIPOS>MOLECULE
*****
 38 42 0 0 0
SMALL
GASTEIGER

@<TRIPOS>ATOM
      1 C          59.8117   89.6394    7.4791 C.ar    1  UNL1        0.0175
      2 C          60.3518   90.4340    8.6310 C.ar    1  UNL1        0.0012
      3 C          61.0955   89.7432    9.7355 C.ar    1  UNL1       -0.0029
      4 C          61.2990   88.2577    9.6879 C.ar    1  UNL1       -0.0085
      5 C          60.7590   87.4633    8.5361 C.ar    1  UNL1       -0.0246
      6 C          60.0153   88.1540    7.4316 C.ar    1  UNL1       -0.0030
      7 C          60.8498   85.9855    8.2949 C.3     1  UNL1        0.0261
      8 C          61.5032   84.9374    9.1462 C.3     1  UNL1        0.0047
      9 C          62.2270   85.1082   10.4487 C.3     1  UNL1        0.0024
     10 C          62.4764   86.3692   11.2219 C.3     1  UNL1        0.0241
     11 C          62.0634   87.7709   10.8833 C.3     1  UNL1        0.0942
     12 C          59.0552   91.9338    4.3305 C.ar    1  UNL1        0.2207
     13 N          57.5809   91.7120    4.1658 N.ar    1  UNL1       -0.2120
     14 C          56.8502   90.7994    5.1056 C.ar    1  UNL1        0.1034
     15 C          57.5938   90.1085    6.2100 C.ar    1  UNL1        0.0399
     16 C          59.0681   90.3302    6.3747 C.ar    1  UNL1        0.0857
     17 N          59.7988   91.2429    5.4350 N.ar    1  UNL1       -0.2135
     18 N          59.7860   92.8465    3.3908 N.pl3   1  UNL1       -0.2801
     19 H          59.3290   93.6324    3.0130 H       1  UNL1        0.1552
     20 C          64.5263   93.1042    1.0791 C.3     1  UNL1        0.1538
     21 N          63.3918   92.6802    1.9641 N.ar    1  UNL1       -0.2460
     22 C          62.0242   93.2951    2.0001 C.ar    1  UNL1        0.1114
     23 C          61.2130   92.5616    3.0267 C.ar    1  UNL1        0.0906
     24 C          62.0793   91.4934    3.6253 C.ar    1  UNL1        0.1363
     25 N          63.4260   91.5666    2.9686 N.ar    1  UNL1       -0.1662
     26 N          62.4682   88.8251   11.8705 N.am    1  UNL1       -0.2948
     27 C          63.2954   88.4551   13.0660 C.2     1  UNL1        0.3024
     28 O          63.7177   87.0309   13.2741 O.2     1  UNL1       -0.2649
     29 H          62.1911   89.7598   11.7339 H       1  UNL1        0.1501
     30 C          63.7002   89.5094   14.0533 C.ar    1  UNL1        0.3134
     31 N          65.0086   90.2425   14.0733 N.ar    1  UNL1       -0.1873
     32 C          64.9848   91.2018   15.2262 C.ar    1  UNL1        0.1801
     33 N          63.6616   91.0616   15.9186 N.ar    1  UNL1       -0.0601
     34 O          62.8677   90.0156   15.1937 O.2     1  UNL1       -0.3279
     35 C          66.0902   92.1371   15.6178 C.3     1  UNL1        0.0557
     36 C          65.2621   92.6353   16.7651 C.3     1  UNL1        0.0077
     37 C          66.9183   91.6390   14.4706 C.3     1  UNL1        0.0077
     38 C          67.1955   93.0725   16.0096 C.3     1  UNL1        0.0077
@<TRIPOS>BOND
     1    20    21    1
     2    21    22   ar
     3    22    23   ar
     4    23    18    1
     5    18    12    1
     6    12    13   ar
     7    13    14   ar
     8    14    15   ar
     9    15    16   ar
    10    16     1    1
    11     1     2   ar
    12     2     3   ar
    13     3     4   ar
    14     4     5   ar
    15     5     6   ar
    16     5     7    1
    17     7     8    1
    18     8     9    1
    19     9    10    1
    20    10    11    1
    21    11    26    1
    22    26    27   am
    23    27    28    2
    24    27    30    1
    25    30    31   ar
    26    31    32   ar
    27    32    35    1
    28    35    36    1
    29    35    37    1
    30    35    38    1
    31    32    33   ar
    32    33    34   ar
    33    16    17   ar
    34    23    24   ar
    35    24    25   ar
    36    25    21   ar
    37    17    12   ar
    38     6     1   ar
    39    34    30   ar
    40    11     4    1
    41    18    19    1
    42    26    29    1
@<TRIPOS>MOLECULE
*****
 38 42 0 0 0
SMALL
GASTEIGER

@<TRIPOS>ATOM
      1 C          62.5054   90.0662   11.4155 C.ar    1  UNL1        0.0175
      2 C          62.6336   90.9186   10.1879 C.ar    1  UNL1        0.0012
      3 C          61.8617   90.5710    8.9496 C.ar    1  UNL1       -0.0029
      4 C          60.9617   89.3711    8.9389 C.ar    1  UNL1       -0.0085
      5 C          60.8336   88.5188   10.1664 C.ar    1  UNL1       -0.0246
      6 C          61.6054   88.8662   11.4048 C.ar    1  UNL1       -0.0030
      7 C          59.9990   87.2887   10.3681 C.3     1  UNL1        0.0261
      8 C          59.0864   86.6074    9.3918 C.3     1  UNL1        0.0047
      9 C          58.7831   86.9877    7.9730 C.3     1  UNL1        0.0024
     10 C          59.3173   88.1433    7.1798 C.3     1  UNL1        0.0241
     11 C          60.2869   89.2040    7.6097 C.3     1  UNL1        0.0942
     12 C          63.7175   90.0949   15.1944 C.ar    1  UNL1        0.2207
     13 N          64.8209   91.1088   15.1305 N.ar    1  UNL1       -0.2120
     14 C          65.1526   91.7753   13.8283 C.ar    1  UNL1        0.1034
     15 C          64.3807   91.4278   12.5899 C.ar    1  UNL1        0.0399
     16 C          63.2773   90.4138   12.6538 C.ar    1  UNL1        0.0857
     17 N          62.9456   89.7473   13.9561 N.ar    1  UNL1       -0.2135
     18 N          63.3859   89.4284   16.4967 N.pl3   1  UNL1       -0.2801
     19 H          63.2707   89.9693   17.3112 H       1  UNL1        0.1552
     20 C          63.8918   84.2787   15.4452 C.3     1  UNL1        0.1538
     21 N          63.4622   85.5708   16.0746 N.ar    1  UNL1       -0.2460
     22 C          63.9030   86.9431   15.6595 C.ar    1  UNL1        0.1114
     23 C          63.2296   87.9378   16.5579 C.ar    1  UNL1        0.0906
     24 C          62.3726   87.1802   17.5282 C.ar    1  UNL1        0.1363
     25 N          62.5163   85.7172   17.2295 N.ar    1  UNL1       -0.1662
     26 N          60.6266   90.2338    6.5733 N.am    1  UNL1       -0.2948
     27 C          59.5646   90.7403    5.6429 C.2     1  UNL1        0.3024
     28 O          58.1629   90.2168    5.7488 O.2     1  UNL1       -0.2649
     29 H          61.5466   90.5773    6.5038 H       1  UNL1        0.1501
     30 C          59.9044   91.7701    4.6065 C.ar    1  UNL1        0.3134
     31 N          61.1339   91.7840    3.7474 N.ar    1  UNL1       -0.1873
     32 C          61.0638   92.9893    2.8573 C.ar    1  UNL1        0.1801
     33 N          59.7909   93.7202    3.1662 N.ar    1  UNL1       -0.0601
     34 O          59.0743   92.9668    4.2473 O.2     1  UNL1       -0.3279
     35 C          62.0869   93.3928    1.8373 C.3     1  UNL1        0.0557
     36 C          62.9759   92.2707    2.2852 C.3     1  UNL1        0.0077
     37 C          61.1980   94.5149    1.3893 C.3     1  UNL1        0.0077
     38 C          63.1101   93.7961    0.8173 C.3     1  UNL1        0.0077
@<TRIPOS>BOND
     1    20    21    1
     2    21    22   ar
     3    22    23   ar
     4    23    18    1
     5    18    12    1
     6    12    13   ar
     7    13    14   ar
     8    14    15   ar
     9    15    16   ar
    10    16     1    1
    11     1     2   ar
    12     2     3   ar
    13     3     4   ar
    14     4     5   ar
    15     5     6   ar
    16     5     7    1
    17     7     8    1
    18     8     9    1
    19     9    10    1
    20    10    11    1
    21    11    26    1
    22    26    27   am
    23    27    28    2
    24    27    30    1
    25    30    31   ar
    26    31    32   ar
    27    32    35    1
    28    35    36    1
    29    35    37    1
    30    35    38    1
    31    32    33   ar
    32    33    34   ar
    33    16    17   ar
    34    23    24   ar
    35    24    25   ar
    36    25    21   ar
    37    17    12   ar
    38     6     1   ar
    39    34    30   ar
    40    11     4    1
    41    18    19    1
    42    26    29    1
@<TRIPOS>MOLECULE
*****
 38 42 0 0 0
SMALL
GASTEIGER

@<TRIPOS>ATOM
      1 C          60.9522   88.3034    9.4216 C.ar    1  UNL1        0.0175
      2 C          61.7148   89.3968   10.1093 C.ar    1  UNL1        0.0012
      3 C          62.5874   89.0765   11.2866 C.ar    1  UNL1       -0.0029
      4 C          62.6973   87.6629   11.7762 C.ar    1  UNL1       -0.0085
      5 C          61.9347   86.5697   11.0885 C.ar    1  UNL1       -0.0246
      6 C          61.0621   86.8898    9.9112 C.ar    1  UNL1       -0.0030
      7 C          61.9026   85.1053   11.4122 C.3     1  UNL1        0.0261
      8 C          62.6254   84.3726   12.5035 C.3     1  UNL1        0.0047
      9 C          63.5586   84.9234   13.5406 C.3     1  UNL1        0.0024
     10 C          63.9996   86.3428   13.7427 C.3     1  UNL1        0.0241
     11 C          63.6163   87.5620   12.9574 C.3     1  UNL1        0.0942
     12 C          59.2444   90.3137    6.4564 C.ar    1  UNL1        0.2207
     13 N          58.3346   89.2645    5.8897 N.ar    1  UNL1       -0.2120
     14 C          58.2972   87.8949    6.5003 C.ar    1  UNL1        0.1034
     15 C          59.1697   87.5745    7.6776 C.ar    1  UNL1        0.0399
     16 C          60.0796   88.6237    8.2443 C.ar    1  UNL1        0.0857
     17 N          60.1170   89.9933    7.6337 N.ar    1  UNL1       -0.2135
     18 N          59.2818   91.6833    5.8458 N.pl3   1  UNL1       -0.2801
     19 H          58.7540   92.4136    6.2423 H       1  UNL1        0.1552
     20 C          63.3417   91.7423    2.4701 C.3     1  UNL1        0.1538
     21 N          61.9895   91.9672    3.0793 N.ar    1  UNL1       -0.2460
     22 C          61.5420   91.4955    4.4311 C.ar    1  UNL1        0.1114
     23 C          60.1234   91.9401    4.6309 C.ar    1  UNL1        0.0906
     24 C          59.6942   92.6865    3.4027 C.ar    1  UNL1        0.1363
     25 N          60.8475   92.7033    2.4437 N.ar    1  UNL1       -0.1662
     26 N          64.2336   88.8506   13.4137 N.am    1  UNL1       -0.2948
     27 C          63.9758   89.3554   14.8026 C.2     1  UNL1        0.3024
     28 O          63.1007   88.5714   15.7351 O.2     1  UNL1       -0.2649
     29 H          64.8080   89.3652   12.8017 H       1  UNL1        0.1501
     30 C          64.5932   90.6441   15.2588 C.ar    1  UNL1        0.3134
     31 N          65.9849   91.1121   14.9523 N.ar    1  UNL1       -0.1873
     32 C          66.1791   92.4483   15.6057 C.ar    1  UNL1        0.1801
     33 N          64.9074   92.8060   16.3161 N.ar    1  UNL1       -0.0601
     34 O          63.9272   91.6910   16.1018 O.2     1  UNL1       -0.3279
     35 C          67.4261   93.2805   15.5572 C.3     1  UNL1        0.0557
     36 C          66.8509   94.0762   14.4231 C.3     1  UNL1        0.0077
     37 C          68.0013   92.4849   16.6912 C.3     1  UNL1        0.0077
     38 C          68.6731   94.1128   15.5086 C.3     1  UNL1        0.0077
@<TRIPOS>BOND
     1    20    21    1
     2    21    22   ar
     3    22    23   ar
     4    23    18    1
     5    18    12    1
     6    12    13   ar
     7    13    14   ar
     8    14    15   ar
     9    15    16   ar
    10    16     1    1
    11     1     2   ar
    12     2     3   ar
    13     3     4   ar
    14     4     5   ar
    15     5     6   ar
    16     5     7    1
    17     7     8    1
    18     8     9    1
    19     9    10    1
    20    10    11    1
    21    11    26    1
    22    26    27   am
    23    27    28    2
    24    27    30    1
    25    30    31   ar
    26    31    32   ar
    27    32    35    1
    28    35    36    1
    29    35    37    1
    30    35    38    1
    31    32    33   ar
    32    33    34   ar
    33    16    17   ar
    34    23    24   ar
    35    24    25   ar
    36    25    21   ar
    37    17    12   ar
    38     6     1   ar
    39    34    30   ar
    40    11     4    1
    41    18    19    1
    42    26    29    1
@<TRIPOS>MOLECULE
*****
 38 42 0 0 0
SMALL
GASTEIGER

@<TRIPOS>ATOM
      1 C          61.0838   94.5901   -3.8674 C.ar    1  UNL1        0.0175
      2 C          60.8718   93.7104   -2.6711 C.ar    1  UNL1        0.0012
      3 C          61.8472   93.7455   -1.5320 C.ar    1  UNL1       -0.0029
      4 C          63.0347   94.6603   -1.5894 C.ar    1  UNL1       -0.0085
      5 C          63.2466   95.5399   -2.7857 C.ar    1  UNL1       -0.0246
      6 C          62.2712   95.5049   -3.9247 C.ar    1  UNL1       -0.0030
      7 C          64.3551   96.5171   -3.0434 C.3     1  UNL1        0.0261
      8 C          65.5254   96.8560   -2.1683 C.3     1  UNL1        0.0047
      9 C          65.8761   96.3013   -0.8196 C.3     1  UNL1        0.0024
     10 C          65.1433   95.2709   -0.0126 C.3     1  UNL1        0.0241
     11 C          63.8787   94.5405   -0.3552 C.3     1  UNL1        0.0942
     12 C          57.6628   94.4040   -5.8704 C.ar    1  UNL1        0.2207
     13 N          58.1572   94.4848   -7.2842 N.ar    1  UNL1       -0.2120
     14 C          59.6273   94.6007   -7.5591 C.ar    1  UNL1        0.1034
     15 C          60.6028   94.6358   -6.4201 C.ar    1  UNL1        0.0399
     16 C          60.1083   94.5550   -5.0064 C.ar    1  UNL1        0.0857
     17 N          58.6383   94.4391   -4.7315 N.ar    1  UNL1       -0.2135
     18 N          56.1927   94.2881   -5.5955 N.pl3   1  UNL1       -0.2801
     19 H          55.5592   94.1825   -6.3417 H       1  UNL1        0.1552
     20 C          53.7924   95.8770   -1.1688 C.3     1  UNL1        0.1538
     21 N          54.5846   95.0635   -2.1490 N.ar    1  UNL1       -0.2460
     22 C          54.8630   95.4291   -3.5769 C.ar    1  UNL1        0.1114
     23 C          55.6879   94.3331   -4.1837 C.ar    1  UNL1        0.0906
     24 C          55.9194   93.2901   -3.1308 C.ar    1  UNL1        0.1363
     25 N          55.2375   93.7414   -1.8733 N.ar    1  UNL1       -0.1662
     26 N          63.3942   93.5609    0.6721 N.am    1  UNL1       -0.2948
     27 C          62.3328   93.9651    1.6520 C.2     1  UNL1        0.3024
     28 O          61.7559   95.3489    1.6044 O.2     1  UNL1       -0.2649
     29 H          63.7728   92.6527    0.7033 H       1  UNL1        0.1501
     30 C          61.8482   92.9854    2.6794 C.ar    1  UNL1        0.3134
     31 N          60.4346   92.8370    3.1583 N.ar    1  UNL1       -0.1873
     32 C          60.4049   91.7420    4.1831 C.ar    1  UNL1        0.1801
     33 N          61.8002   91.2138    4.3375 N.ar    1  UNL1       -0.0601
     34 O          62.6923   91.9822    3.4081 O.2     1  UNL1       -0.3279
     35 C          59.1927   91.2600    4.9235 C.3     1  UNL1        0.0557
     36 C          60.0471   90.3007    5.6979 C.3     1  UNL1        0.0077
     37 C          58.3382   92.2193    4.1491 C.3     1  UNL1        0.0077
     38 C          57.9805   90.7780    5.6639 C.3     1  UNL1        0.0077
@<TRIPOS>BOND
     1    20    21    1
     2    21    22   ar
     3    22    23   ar
     4    23    18    1
     5    18    12    1
     6    12    13   ar
     7    13    14   ar
     8    14    15   ar
     9    15    16   ar
    10    16     1    1
    11     1     2   ar
    12     2     3   ar
    13     3     4   ar
    14     4     5   ar
    15     5     6   ar
    16     5     7    1
    17     7     8    1
    18     8     9    1
    19     9    10    1
    20    10    11    1
    21    11    26    1
    22    26    27   am
    23    27    28    2
    24    27    30    1
    25    30    31   ar
    26    31    32   ar
    27    32    35    1
    28    35    36    1
    29    35    37    1
    30    35    38    1
    31    32    33   ar
    32    33    34   ar
    33    16    17   ar
    34    23    24   ar
    35    24    25   ar
    36    25    21   ar
    37    17    12   ar
    38     6     1   ar
    39    34    30   ar
    40    11     4    1
    41    18    19    1
    42    26    29    1
@<TRIPOS>MOLECULE
*****
 38 42 0 0 0
SMALL
GASTEIGER

@<TRIPOS>ATOM
      1 C          58.8303   94.2993   -3.6383 C.ar    1  UNL1        0.0175
      2 C          58.8215   93.5028   -2.3672 C.ar    1  UNL1        0.0012
      3 C          60.0740   93.3789   -1.5512 C.ar    1  UNL1       -0.0029
      4 C          61.3353   94.0514   -2.0062 C.ar    1  UNL1       -0.0085
      5 C          61.3440   94.8478   -3.2772 C.ar    1  UNL1       -0.0246
      6 C          60.0915   94.9718   -4.0933 C.ar    1  UNL1       -0.0030
      7 C          62.4841   95.5921   -3.9068 C.3     1  UNL1        0.0261
      8 C          63.8971   95.7236   -3.4207 C.3     1  UNL1        0.0047
      9 C          64.5188   95.1435   -2.1851 C.3     1  UNL1        0.0024
     10 C          63.8813   94.2885   -1.1303 C.3     1  UNL1        0.0241
     11 C          62.4644   93.8024   -1.0507 C.3     1  UNL1        0.0942
     12 C          55.3357   95.6324   -4.9652 C.ar    1  UNL1        0.2207
     13 N          55.0727   94.6712   -6.0862 N.ar    1  UNL1       -0.2120
     14 C          56.0622   93.5859   -6.3913 C.ar    1  UNL1        0.1034
     15 C          57.3148   93.4619   -5.5753 C.ar    1  UNL1        0.0399
     16 C          57.5778   94.4232   -4.4543 C.ar    1  UNL1        0.0857
     17 N          56.5882   95.5084   -4.1492 N.ar    1  UNL1       -0.2135
     18 N          54.3461   96.7177   -4.6601 N.pl3   1  UNL1       -0.2801
     19 H          54.6497   97.6501   -4.5721 H       1  UNL1        0.1552
     20 C          49.2471   95.8095   -5.6880 C.3     1  UNL1        0.1538
     21 N          50.5504   95.9649   -4.9618 N.ar    1  UNL1       -0.2460
     22 C          51.8638   96.3448   -5.5787 C.ar    1  UNL1        0.1114
     23 C          52.8941   96.3823   -4.4892 C.ar    1  UNL1        0.0906
     24 C          52.2175   96.0255   -3.1989 C.ar    1  UNL1        0.1363
     25 N          50.7690   95.7675   -3.4909 N.ar    1  UNL1       -0.1662
     26 N          62.1330   92.9555    0.1420 N.am    1  UNL1       -0.2948
     27 C          61.6444   93.5986    1.4061 C.2     1  UNL1        0.3024
     28 O          61.4872   95.0887    1.4773 O.2     1  UNL1       -0.2649
     29 H          62.2361   91.9776    0.0953 H       1  UNL1        0.1501
     30 C          61.3129   92.7516    2.5989 C.ar    1  UNL1        0.3134
     31 N          59.9375   92.4786    3.1315 N.ar    1  UNL1       -0.1873
     32 C          60.0732   91.5872    4.3303 C.ar    1  UNL1        0.1801
     33 N          61.5324   91.3093    4.5385 N.ar    1  UNL1       -0.0601
     34 O          62.2986   92.0290    3.4685 O.2     1  UNL1       -0.3279
     35 C          58.9472   91.0653    5.1728 C.3     1  UNL1        0.0557
     36 C          59.8947   90.1243    5.8561 C.3     1  UNL1        0.0077
     37 C          57.9997   92.0063    4.4896 C.3     1  UNL1        0.0077
     38 C          57.8213   90.5434    6.0154 C.3     1  UNL1        0.0077
@<TRIPOS>BOND
     1    20    21    1
     2    21    22   ar
     3    22    23   ar
     4    23    18    1
     5    18    12    1
     6    12    13   ar
     7    13    14   ar
     8    14    15   ar
     9    15    16   ar
    10    16     1    1
    11     1     2   ar
    12     2     3   ar
    13     3     4   ar
    14     4     5   ar
    15     5     6   ar
    16     5     7    1
    17     7     8    1
    18     8     9    1
    19     9    10    1
    20    10    11    1
    21    11    26    1
    22    26    27   am
    23    27    28    2
    24    27    30    1
    25    30    31   ar
    26    31    32   ar
    27    32    35    1
    28    35    36    1
    29    35    37    1
    30    35    38    1
    31    32    33   ar
    32    33    34   ar
    33    16    17   ar
    34    23    24   ar
    35    24    25   ar
    36    25    21   ar
    37    17    12   ar
    38     6     1   ar
    39    34    30   ar
    40    11     4    1
    41    18    19    1
    42    26    29    1
@<TRIPOS>MOLECULE
*****
 38 42 0 0 0
SMALL
GASTEIGER

@<TRIPOS>ATOM
      1 C          62.7422   85.2978   11.2588 C.ar    1  UNL1        0.0175
      2 C          63.3377   86.1700   12.3239 C.ar    1  UNL1        0.0012
      3 C          62.9655   87.6211   12.3999 C.ar    1  UNL1       -0.0029
      4 C          61.9978   88.2000   11.4107 C.ar    1  UNL1       -0.0085
      5 C          61.4023   87.3278   10.3457 C.ar    1  UNL1       -0.0246
      6 C          61.7744   85.8767   10.2696 C.ar    1  UNL1       -0.0030
      7 C          60.4261   87.7002    9.2693 C.3     1  UNL1        0.0261
      8 C          59.8044   89.0370    8.9924 C.3     1  UNL1        0.0047
      9 C          60.0054   90.3313    9.7233 C.3     1  UNL1        0.0024
     10 C          60.8776   90.6087   10.9117 C.3     1  UNL1        0.0241
     11 C          61.7643   89.6601   11.6627 C.3     1  UNL1        0.0942
     12 C          63.2190   81.4907   12.2729 C.ar    1  UNL1        0.2207
     13 N          63.8588   80.9445   11.0311 N.ar    1  UNL1       -0.2120
     14 C          64.1263   81.8493    9.8651 C.ar    1  UNL1        0.1034
     15 C          63.7541   83.3005    9.9409 C.ar    1  UNL1        0.0399
     16 C          63.1144   83.8467   11.1828 C.ar    1  UNL1        0.0857
     17 N          62.8468   82.9418   12.3488 N.ar    1  UNL1       -0.2135
     18 N          62.9514   80.5858   13.4389 N.pl3   1  UNL1       -0.2801
     19 H          63.7024   80.2064   13.9502 H       1  UNL1        0.1552
     20 C          58.5511   77.8999   14.5812 C.3     1  UNL1        0.1538
     21 N          59.5170   79.0243   14.3511 N.ar    1  UNL1       -0.2460
     22 C          60.9524   78.8832   13.9393 C.ar    1  UNL1        0.1114
     23 C          61.5395   80.2589   13.8261 C.ar    1  UNL1        0.0906
     24 C          60.4670   81.2502   14.1679 C.ar    1  UNL1        0.1363
     25 N          59.2169   80.4872   14.4924 N.ar    1  UNL1       -0.1662
     26 N          62.5170   90.2497   12.8184 N.am    1  UNL1       -0.2948
     27 C          63.7923   91.0018   12.5776 C.2     1  UNL1        0.3024
     28 O          64.3149   91.1644   11.1809 O.2     1  UNL1       -0.2649
     29 H          62.1741   90.1430   13.7351 H       1  UNL1        0.1501
     30 C          64.5451   91.5914   13.7334 C.ar    1  UNL1        0.3134
     31 N          65.9287   92.1682   13.6822 N.ar    1  UNL1       -0.1873
     32 C          66.2851   92.6409   15.0604 C.ar    1  UNL1        0.1801
     33 N          65.1217   92.3563   15.9634 N.ar    1  UNL1       -0.0601
     34 O          64.0463   91.7076   15.1433 O.2     1  UNL1       -0.3279
     35 C          67.5780   93.2852   15.4647 C.3     1  UNL1        0.0557
     36 C          67.8568   92.1420   16.3950 C.3     1  UNL1        0.0077
     37 C          67.2993   94.4284   14.5344 C.3     1  UNL1        0.0077
     38 C          68.8709   93.9294   15.8689 C.3     1  UNL1        0.0077
@<TRIPOS>BOND
     1    20    21    1
     2    21    22   ar
     3    22    23   ar
     4    23    18    1
     5    18    12    1
     6    12    13   ar
     7    13    14   ar
     8    14    15   ar
     9    15    16   ar
    10    16     1    1
    11     1     2   ar
    12     2     3   ar
    13     3     4   ar
    14     4     5   ar
    15     5     6   ar
    16     5     7    1
    17     7     8    1
    18     8     9    1
    19     9    10    1
    20    10    11    1
    21    11    26    1
    22    26    27   am
    23    27    28    2
    24    27    30    1
    25    30    31   ar
    26    31    32   ar
    27    32    35    1
    28    35    36    1
    29    35    37    1
    30    35    38    1
    31    32    33   ar
    32    33    34   ar
    33    16    17   ar
    34    23    24   ar
    35    24    25   ar
    36    25    21   ar
    37    17    12   ar
    38     6     1   ar
    39    34    30   ar
    40    11     4    1
    41    18    19    1
    42    26    29    1
