@<TRIPOS>MOLECULE
*****
 41 44 0 0 0
SMALL
GASTEIGER

@<TRIPOS>ATOM
      1 C          61.0716   88.3638    9.3573 C.ar    1  UNL1        0.0597
      2 C          60.1607   89.3225    8.6493 C.ar    1  UNL1        0.0423
      3 C          59.3392   88.8551    7.4846 C.ar    1  UNL1        0.1504
      4 C          59.4285   87.4291    7.0279 C.ar    1  UNL1        0.0744
      5 C          60.3393   86.4705    7.7360 C.ar    1  UNL1        0.1416
      6 C          61.1608   86.9378    8.9006 C.ar    1  UNL1        0.0416
      7 N          62.4001   90.2423   10.5643 N.am    1  UNL1       -0.2644
      8 C          61.8932   88.8312   10.5221 C.2     1  UNL1        0.2508
      9 O          62.2079   87.8873   11.6447 O.2     1  UNL1       -0.2698
     10 H          62.1935   90.8617    9.8275 H       1  UNL1        0.1566
     11 N          64.9173   91.8290   13.0565 N.ar    1  UNL1       -0.2357
     12 C          64.0545   91.0283   13.9864 C.ar    1  UNL1        0.0988
     13 C          63.0065   90.3365   13.1659 C.ar    1  UNL1        0.0565
     14 C          63.2217   90.7096   11.7290 C.ar    1  UNL1        0.1557
     15 N          64.4026   91.6320   11.6614 N.ar    1  UNL1       -0.1534
     16 C          66.0891   92.6777   13.4522 C.3     1  UNL1        0.2423
     17 P          67.4830   92.2324   13.1226 P.3     1  UNL1        0.3677
     18 O          68.8770   91.7873   12.7929 O.2     1  UNL1       -0.2557
     19 O          67.5799   91.5493   14.4545 O.3     1  UNL1       -0.2928
     20 C          68.7141   93.4280   15.8452 C.3     1  UNL1        0.0352
     21 C          67.6651   92.3643   15.7109 C.3     1  UNL1        0.1515
     22 O          67.3862   92.9156   11.7907 O.3     1  UNL1       -0.2928
     23 C          67.7473   92.1725   10.5386 C.3     1  UNL1        0.1515
     24 C          68.5058   92.8670    9.4467 C.3     1  UNL1        0.0352
     25 O          58.4283   89.8138    6.7765 O.3     1  UNL1       -0.4347
     26 C          58.9685   90.7017    5.6950 C.ar    1  UNL1        0.2494
     27 C          58.0412   91.5944    4.9245 C.ar    1  UNL1        0.1569
     28 N          58.5814   92.4823    3.8430 N.ar    1  UNL1       -0.2328
     29 C          60.0489   92.4775    3.5318 C.ar    1  UNL1        0.1540
     30 C          60.9760   91.5849    4.3022 C.ar    1  UNL1        0.1258
     31 N          60.4358   90.6970    5.3838 N.ar    1  UNL1       -0.2068
     32 C          60.5891   93.3655    2.4503 C.2     1  UNL1        0.2683
     33 O          59.6898   94.3594    1.7770 O.2     1  UNL1       -0.2682
     34 N          62.0286   93.2594    2.0420 N.am    1  UNL1       -0.2747
     35 C          63.1930   92.4161    2.4697 C.3     1  UNL1        0.0955
     36 C          64.0643   93.1094    1.4645 C.3     1  UNL1        0.0430
     37 C          62.8998   93.9527    1.0369 C.3     1  UNL1        0.0955
     38 O          60.4286   85.0445    7.2793 O.3     1  UNL1       -0.4791
     39 C          61.6882   84.5388    6.6409 C.3     1  UNL1        0.1661
     40 C          62.9735   84.5396    7.4142 C.3     1  UNL1        0.0472
     41 C          61.6626   84.0325    5.2291 C.3     1  UNL1        0.0472
@<TRIPOS>BOND
     1    20    21    1
     2    21    19    1
     3    19    17    1
     4    17    18    2
     5    17    16    1
     6    16    11    1
     7    11    12   ar
     8    12    13   ar
     9    13    14   ar
    10    14     7    1
    11     7     8   am
    12     8     9    2
    13     8     1    1
    14     1     2   ar
    15     2     3   ar
    16     3    25    1
    17    25    26    1
    18    26    27   ar
    19    27    28   ar
    20    28    29   ar
    21    29    32    1
    22    32    33    2
    23    32    34   am
    24    34    35    1
    25    35    36    1
    26    36    37    1
    27    29    30   ar
    28    30    31   ar
    29     3     4   ar
    30     4     5   ar
    31     5    38    1
    32    38    39    1
    33    39    40    1
    34    39    41    1
    35     5     6   ar
    36    14    15   ar
    37    17    22    1
    38    22    23    1
    39    23    24    1
    40    15    11   ar
    41     6     1   ar
    42    31    26   ar
    43    37    34    1
    44     7    10    1
@<TRIPOS>MOLECULE
*****
 41 44 0 0 0
SMALL
GASTEIGER

@<TRIPOS>ATOM
      1 C          61.1182   88.3481    9.3601 C.ar    1  UNL1        0.0597
      2 C          60.2109   89.3255    8.6735 C.ar    1  UNL1        0.0423
      3 C          59.3729   88.8820    7.5112 C.ar    1  UNL1        0.1504
      4 C          59.4421   87.4611    7.0356 C.ar    1  UNL1        0.0744
      5 C          60.3493   86.4837    7.7222 C.ar    1  UNL1        0.1416
      6 C          61.1873   86.9272    8.8845 C.ar    1  UNL1        0.0416
      7 N          62.4055   90.2192   10.6218 N.am    1  UNL1       -0.2644
      8 C          61.9563   88.7916   10.5225 C.2     1  UNL1        0.2508
      9 O          62.3451   87.8073   11.5855 O.2     1  UNL1       -0.2698
     10 H          62.1503   90.8652    9.9240 H       1  UNL1        0.1566
     11 N          64.9448   91.7717   13.1132 N.ar    1  UNL1       -0.2357
     12 C          64.1216   90.9185   14.0323 C.ar    1  UNL1        0.0988
     13 C          63.0702   90.2331   13.2108 C.ar    1  UNL1        0.0565
     14 C          63.2436   90.6627   11.7841 C.ar    1  UNL1        0.1557
     15 N          64.4021   91.6136   11.7238 N.ar    1  UNL1       -0.1534
     16 C          66.1066   92.6318   13.5134 C.3     1  UNL1        0.2423
     17 P          67.5064   92.1978   13.1938 P.3     1  UNL1        0.3677
     18 O          68.9063   91.7638   12.8743 O.2     1  UNL1       -0.2557
     19 O          67.3339   92.6794   11.7837 O.3     1  UNL1       -0.2928
     20 C          68.3194   92.7472    9.3808 C.3     1  UNL1        0.0352
     21 C          68.0812   92.0129   10.6669 C.3     1  UNL1        0.1515
     22 O          67.6789   91.7162   14.6039 O.3     1  UNL1       -0.2928
     23 C          67.6498   92.6956   15.7398 C.3     1  UNL1        0.1515
     24 C          68.8139   93.6134   15.9687 C.3     1  UNL1        0.0352
     25 O          58.4656   89.8594    6.8245 O.3     1  UNL1       -0.4347
     26 C          58.9977   90.7340    5.7281 C.ar    1  UNL1        0.2494
     27 C          58.0627   91.6072    4.9448 C.ar    1  UNL1        0.1569
     28 N          58.5948   92.4817    3.8484 N.ar    1  UNL1       -0.2328
     29 C          60.0618   92.4830    3.5353 C.ar    1  UNL1        0.1540
     30 C          60.9967   91.6099    4.3185 C.ar    1  UNL1        0.1258
     31 N          60.4646   90.7353    5.4149 N.ar    1  UNL1       -0.2068
     32 C          60.5939   93.3576    2.4389 C.2     1  UNL1        0.2683
     33 O          59.6995   94.3691    1.7856 O.2     1  UNL1       -0.2682
     34 N          62.0204   93.2205    1.9957 N.am    1  UNL1       -0.2747
     35 C          63.1770   92.3536    2.3966 C.3     1  UNL1        0.0955
     36 C          64.0378   93.0267    1.3690 C.3     1  UNL1        0.0430
     37 C          62.8811   93.8936    0.9681 C.3     1  UNL1        0.0955
     38 O          60.4185   85.0627    7.2466 O.3     1  UNL1       -0.4791
     39 C          61.6765   84.5433    6.6161 C.3     1  UNL1        0.1661
     40 C          61.6478   84.0094    5.2146 C.3     1  UNL1        0.0472
     41 C          62.9632   84.5578    7.3870 C.3     1  UNL1        0.0472
@<TRIPOS>BOND
     1    20    21    1
     2    21    19    1
     3    19    17    1
     4    17    18    2
     5    17    16    1
     6    16    11    1
     7    11    12   ar
     8    12    13   ar
     9    13    14   ar
    10    14     7    1
    11     7     8   am
    12     8     9    2
    13     8     1    1
    14     1     2   ar
    15     2     3   ar
    16     3    25    1
    17    25    26    1
    18    26    27   ar
    19    27    28   ar
    20    28    29   ar
    21    29    32    1
    22    32    33    2
    23    32    34   am
    24    34    35    1
    25    35    36    1
    26    36    37    1
    27    29    30   ar
    28    30    31   ar
    29     3     4   ar
    30     4     5   ar
    31     5    38    1
    32    38    39    1
    33    39    40    1
    34    39    41    1
    35     5     6   ar
    36    14    15   ar
    37    17    22    1
    38    22    23    1
    39    23    24    1
    40    15    11   ar
    41     6     1   ar
    42    31    26   ar
    43    37    34    1
    44     7    10    1
@<TRIPOS>MOLECULE
*****
 41 44 0 0 0
SMALL
GASTEIGER

@<TRIPOS>ATOM
      1 C          60.8334   88.8934    9.3162 C.ar    1  UNL1        0.0597
      2 C          60.1035   89.8520    8.4228 C.ar    1  UNL1        0.0423
      3 C          59.4218   89.3517    7.1838 C.ar    1  UNL1        0.1504
      4 C          59.4699   87.8929    6.8384 C.ar    1  UNL1        0.0744
      5 C          60.1998   86.9342    7.7318 C.ar    1  UNL1        0.1416
      6 C          60.8815   87.4345    8.9707 C.ar    1  UNL1        0.0416
      7 N          62.7254   88.6828   11.0842 N.am    1  UNL1       -0.2644
      8 C          61.5151   89.3936   10.5552 C.2     1  UNL1        0.2508
      9 O          60.9865   90.6046   11.2651 O.2     1  UNL1       -0.2698
     10 H          63.0723   87.8879   10.6183 H       1  UNL1        0.1566
     11 N          64.5600   90.6199   13.9034 N.ar    1  UNL1       -0.2357
     12 C          64.3526   89.2855   14.5563 C.ar    1  UNL1        0.0988
     13 C          63.6400   88.3974   13.5796 C.ar    1  UNL1        0.0565
     14 C          63.4072   89.1830   12.3232 C.ar    1  UNL1        0.1557
     15 N          63.9757   90.5566   12.5233 N.ar    1  UNL1       -0.1534
     16 C          65.2334   91.8089   14.5219 C.3     1  UNL1        0.2423
     17 P          66.4811   92.3691   13.9058 P.3     1  UNL1        0.3677
     18 O          67.7288   92.9291   13.2897 O.2     1  UNL1       -0.2557
     19 O          65.6505   93.2832   13.0547 O.3     1  UNL1       -0.2928
     20 C          66.0888   95.0722   11.2224 C.3     1  UNL1        0.0352
     21 C          66.1073   93.6412   11.6715 C.3     1  UNL1        0.1515
     22 O          67.3117   91.4548   14.7569 O.3     1  UNL1       -0.2928
     23 C          68.2566   92.0273   15.7715 C.3     1  UNL1        0.1515
     24 C          68.1705   93.4783   16.1418 C.3     1  UNL1        0.0352
     25 O          58.6919   90.3104    6.2903 O.3     1  UNL1       -0.4347
     26 C          59.4308   91.0335    5.2035 C.ar    1  UNL1        0.2494
     27 C          60.8990   90.7958    5.0084 C.ar    1  UNL1        0.1569
     28 N          61.6378   91.5190    3.9216 N.ar    1  UNL1       -0.2328
     29 C          60.9085   92.4798    3.0299 C.ar    1  UNL1        0.1540
     30 C          59.4404   92.7174    3.2251 C.ar    1  UNL1        0.1258
     31 N          58.7015   91.9943    4.3119 N.ar    1  UNL1       -0.2068
     32 C          61.6474   93.2029    1.9431 C.2     1  UNL1        0.2683
     33 O          62.8855   93.9843    2.2696 O.2     1  UNL1       -0.2682
     34 N          61.1482   93.1447    0.5298 N.am    1  UNL1       -0.2747
     35 C          59.9881   92.4892   -0.1592 C.3     1  UNL1        0.0955
     36 C          60.4422   93.0623   -1.4689 C.3     1  UNL1        0.0430
     37 C          61.6023   93.7177   -0.7799 C.3     1  UNL1        0.0955
     38 O          60.2479   85.4753    7.3863 O.3     1  UNL1       -0.4791
     39 C          61.5314   84.8580    6.9157 C.3     1  UNL1        0.1661
     40 C          62.7551   84.9203    7.7809 C.3     1  UNL1        0.0472
     41 C          61.5912   84.1783    5.5798 C.3     1  UNL1        0.0472
@<TRIPOS>BOND
     1    20    21    1
     2    21    19    1
     3    19    17    1
     4    17    18    2
     5    17    16    1
     6    16    11    1
     7    11    12   ar
     8    12    13   ar
     9    13    14   ar
    10    14     7    1
    11     7     8   am
    12     8     9    2
    13     8     1    1
    14     1     2   ar
    15     2     3   ar
    16     3    25    1
    17    25    26    1
    18    26    27   ar
    19    27    28   ar
    20    28    29   ar
    21    29    32    1
    22    32    33    2
    23    32    34   am
    24    34    35    1
    25    35    36    1
    26    36    37    1
    27    29    30   ar
    28    30    31   ar
    29     3     4   ar
    30     4     5   ar
    31     5    38    1
    32    38    39    1
    33    39    40    1
    34    39    41    1
    35     5     6   ar
    36    14    15   ar
    37    17    22    1
    38    22    23    1
    39    23    24    1
    40    15    11   ar
    41     6     1   ar
    42    31    26   ar
    43    37    34    1
    44     7    10    1
@<TRIPOS>MOLECULE
*****
 41 44 0 0 0
SMALL
GASTEIGER

@<TRIPOS>ATOM
      1 C          60.2287   88.4604    8.8313 C.ar    1  UNL1        0.0597
      2 C          60.4958   89.3003   10.0451 C.ar    1  UNL1        0.0423
      3 C          61.1466   88.6902   11.2509 C.ar    1  UNL1        0.1504
      4 C          61.5303   87.2401   11.2430 C.ar    1  UNL1        0.0744
      5 C          61.2633   86.4002   10.0293 C.ar    1  UNL1        0.1416
      6 C          60.6124   87.0104    8.8235 C.ar    1  UNL1        0.0416
      7 N          60.1538   90.3109    7.0092 N.am    1  UNL1       -0.2644
      8 C          59.5779   89.0706    7.6254 C.2     1  UNL1        0.2508
      9 O          58.3511   88.4403    7.0357 O.2     1  UNL1       -0.2698
     10 H          60.9590   90.7246    7.3963 H       1  UNL1        0.1566
     11 N          59.1764   92.0386    3.6737 N.ar    1  UNL1       -0.2357
     12 C          57.8264   91.6813    4.2216 C.ar    1  UNL1        0.0988
     13 C          58.0283   90.9906    5.5378 C.ar    1  UNL1        0.0565
     14 C          59.5030   90.9211    5.8033 C.ar    1  UNL1        0.1557
     15 N          60.2125   91.5687    4.6513 N.ar    1  UNL1       -0.1534
     16 C          59.4433   92.7421    2.3762 C.3     1  UNL1        0.2423
     17 P          60.7275   93.4920    2.1799 P.3     1  UNL1        0.3677
     18 O          62.0118   94.2417    1.9835 O.2     1  UNL1       -0.2557
     19 O          60.0193   94.7816    2.4719 O.3     1  UNL1       -0.2928
     20 C          59.2933   95.8715    0.2281 C.3     1  UNL1        0.0352
     21 C          60.0955   95.9170    1.4948 C.3     1  UNL1        0.1515
     22 O          61.4357   92.2023    1.8878 O.3     1  UNL1       -0.2928
     23 C          62.9044   92.0738    2.1645 C.3     1  UNL1        0.1515
     24 C          63.4042   90.9912    3.0745 C.3     1  UNL1        0.0352
     25 O          61.4137   89.5301   12.4647 O.3     1  UNL1       -0.4347
     26 C          62.7362   90.2198   12.6232 C.ar    1  UNL1        0.2494
     27 C          63.3067   91.0179   11.4884 C.ar    1  UNL1        0.1569
     28 N          64.6292   91.7076   11.6469 N.ar    1  UNL1       -0.2328
     29 C          65.3813   91.5993   12.9403 C.ar    1  UNL1        0.1540
     30 C          64.8109   90.8013   14.0750 C.ar    1  UNL1        0.1258
     31 N          63.4884   90.1115   13.9165 N.ar    1  UNL1       -0.2068
     32 C          66.7039   92.2891   13.0988 C.2     1  UNL1        0.2683
     33 O          67.5198   92.6339   11.8883 O.2     1  UNL1       -0.2682
     34 N          67.2105   92.6340   14.4679 N.am    1  UNL1       -0.2747
     35 C          66.6958   92.4556   15.8655 C.3     1  UNL1        0.0955
     36 C          67.9271   93.1219   16.4040 C.3     1  UNL1        0.0430
     37 C          68.4418   93.3003   15.0065 C.3     1  UNL1        0.0955
     38 O          61.6470   84.9501   10.0214 O.3     1  UNL1       -0.4791
     39 C          62.9436   84.5208    9.4014 C.3     1  UNL1        0.1661
     40 C          63.8731   83.6174   10.1562 C.3     1  UNL1        0.0472
     41 C          63.3107   84.9949    8.0264 C.3     1  UNL1        0.0472
@<TRIPOS>BOND
     1    20    21    1
     2    21    19    1
     3    19    17    1
     4    17    18    2
     5    17    16    1
     6    16    11    1
     7    11    12   ar
     8    12    13   ar
     9    13    14   ar
    10    14     7    1
    11     7     8   am
    12     8     9    2
    13     8     1    1
    14     1     2   ar
    15     2     3   ar
    16     3    25    1
    17    25    26    1
    18    26    27   ar
    19    27    28   ar
    20    28    29   ar
    21    29    32    1
    22    32    33    2
    23    32    34   am
    24    34    35    1
    25    35    36    1
    26    36    37    1
    27    29    30   ar
    28    30    31   ar
    29     3     4   ar
    30     4     5   ar
    31     5    38    1
    32    38    39    1
    33    39    40    1
    34    39    41    1
    35     5     6   ar
    36    14    15   ar
    37    17    22    1
    38    22    23    1
    39    23    24    1
    40    15    11   ar
    41     6     1   ar
    42    31    26   ar
    43    37    34    1
    44     7    10    1
@<TRIPOS>MOLECULE
*****
 41 44 0 0 0
SMALL
GASTEIGER

@<TRIPOS>ATOM
      1 C          63.9622   88.9203   14.0073 C.ar    1  UNL1        0.0597
      2 C          63.2078   89.2690   12.7587 C.ar    1  UNL1        0.0423
      3 C          63.2421   90.6717   12.2287 C.ar    1  UNL1        0.1504
      4 C          64.0309   91.7259   12.9474 C.ar    1  UNL1        0.0744
      5 C          64.7854   91.3773   14.1960 C.ar    1  UNL1        0.1416
      6 C          64.7511   89.9745   14.7260 C.ar    1  UNL1        0.0416
      7 N          63.8848   86.3576   13.5873 N.am    1  UNL1       -0.2644
      8 C          63.9279   87.5175   14.5374 C.2     1  UNL1        0.2508
      9 O          63.9367   87.2746   16.0176 O.2     1  UNL1       -0.2698
     10 H          63.8791   86.5170   12.6158 H       1  UNL1        0.1566
     11 N          63.1720   82.6634   14.5414 N.ar    1  UNL1       -0.2357
     12 C          64.4235   82.9287   15.3246 C.ar    1  UNL1        0.0988
     13 C          64.8429   84.3449   15.0625 C.ar    1  UNL1        0.0565
     14 C          63.8505   84.9547   14.1174 C.ar    1  UNL1        0.1557
     15 N          62.8179   83.9155   13.7953 N.ar    1  UNL1       -0.1534
     16 C          62.4087   81.3726   14.5099 C.3     1  UNL1        0.2423
     17 P          62.4450   80.5094   13.2837 P.3     1  UNL1        0.3677
     18 O          62.4814   79.6463   12.0574 O.2     1  UNL1       -0.2557
     19 O          61.2458   79.7562   13.7782 O.3     1  UNL1       -0.2928
     20 C          58.7706   79.7431   14.5675 C.3     1  UNL1        0.0352
     21 C          60.0065   80.4996   14.1801 C.3     1  UNL1        0.1515
     22 O          63.6442   81.2627   12.7891 O.3     1  UNL1       -0.2928
     23 C          63.7373   81.6604   11.3457 C.3     1  UNL1        0.1515
     24 C          64.5043   82.8885   10.9541 C.3     1  UNL1        0.0352
     25 O          62.4876   91.0204   10.9800 O.3     1  UNL1       -0.4347
     26 C          61.8571   89.9362   10.1573 C.ar    1  UNL1        0.2494
     27 C          60.5773   90.2014    9.4212 C.ar    1  UNL1        0.1569
     28 N          59.9467   89.1172    8.5985 N.ar    1  UNL1       -0.2328
     29 C          60.5960   87.7677    8.5119 C.ar    1  UNL1        0.1540
     30 C          61.8757   87.5025    9.2480 C.ar    1  UNL1        0.1258
     31 N          62.5063   88.5868   10.0707 N.ar    1  UNL1       -0.2068
     32 C          59.9654   86.6835    7.6892 C.2     1  UNL1        0.2683
     33 O          58.4798   86.6660    7.4834 O.2     1  UNL1       -0.2682
     34 N          60.8207   85.6166    7.0723 N.am    1  UNL1       -0.2747
     35 C          62.2893   85.3119    7.0560 C.3     1  UNL1        0.0955
     36 C          62.0300   84.1078    6.1999 C.3     1  UNL1        0.0430
     37 C          60.5614   84.4125    6.2162 C.3     1  UNL1        0.0955
     38 O          65.5742   92.4315   14.9147 O.3     1  UNL1       -0.4791
     39 C          67.0732   92.3767   14.9151 C.3     1  UNL1        0.1661
     40 C          67.8096   91.9794   13.6702 C.3     1  UNL1        0.0472
     41 C          67.8359   92.7193   16.1606 C.3     1  UNL1        0.0472
@<TRIPOS>BOND
     1    20    21    1
     2    21    19    1
     3    19    17    1
     4    17    18    2
     5    17    16    1
     6    16    11    1
     7    11    12   ar
     8    12    13   ar
     9    13    14   ar
    10    14     7    1
    11     7     8   am
    12     8     9    2
    13     8     1    1
    14     1     2   ar
    15     2     3   ar
    16     3    25    1
    17    25    26    1
    18    26    27   ar
    19    27    28   ar
    20    28    29   ar
    21    29    32    1
    22    32    33    2
    23    32    34   am
    24    34    35    1
    25    35    36    1
    26    36    37    1
    27    29    30   ar
    28    30    31   ar
    29     3     4   ar
    30     4     5   ar
    31     5    38    1
    32    38    39    1
    33    39    40    1
    34    39    41    1
    35     5     6   ar
    36    14    15   ar
    37    17    22    1
    38    22    23    1
    39    23    24    1
    40    15    11   ar
    41     6     1   ar
    42    31    26   ar
    43    37    34    1
    44     7    10    1
@<TRIPOS>MOLECULE
*****
 41 44 0 0 0
SMALL
GASTEIGER

@<TRIPOS>ATOM
      1 C          63.9635   88.9447   13.9889 C.ar    1  UNL1        0.0597
      2 C          63.2232   89.2821   12.7288 C.ar    1  UNL1        0.0423
      3 C          63.2565   90.6822   12.1914 C.ar    1  UNL1        0.1504
      4 C          64.0301   91.7447   12.9142 C.ar    1  UNL1        0.0744
      5 C          64.7704   91.4073   14.1744 C.ar    1  UNL1        0.1416
      6 C          64.7371   90.0073   14.7117 C.ar    1  UNL1        0.0416
      7 N          63.8945   86.3795   13.5823 N.am    1  UNL1       -0.2644
      8 C          63.9302   87.5446   14.5264 C.2     1  UNL1        0.2508
      9 O          63.9326   87.3097   16.0078 O.2     1  UNL1       -0.2698
     10 H          63.8929   86.5337   12.6100 H       1  UNL1        0.1566
     11 N          63.1795   82.6926   14.5627 N.ar    1  UNL1       -0.2357
     12 C          64.4405   82.9575   15.3308 C.ar    1  UNL1        0.0988
     13 C          64.8618   84.3709   15.0570 C.ar    1  UNL1        0.0565
     14 C          63.8612   84.9795   14.1197 C.ar    1  UNL1        0.1557
     15 N          62.8216   83.9423   13.8142 N.ar    1  UNL1       -0.1534
     16 C          62.4115   81.4044   14.5460 C.3     1  UNL1        0.2423
     17 P          62.4388   80.5306   13.3270 P.3     1  UNL1        0.3677
     18 O          62.4659   79.6568   12.1081 O.2     1  UNL1       -0.2557
     19 O          63.6328   81.2808   12.8158 O.3     1  UNL1       -0.2928
     20 C          64.4424   82.8562   10.9151 C.3     1  UNL1        0.0352
     21 C          63.7481   81.6014   11.3550 C.3     1  UNL1        0.1515
     22 O          61.2446   79.7803   13.8383 O.3     1  UNL1       -0.2928
     23 C          59.9869   80.5199   14.1864 C.3     1  UNL1        0.1515
     24 C          58.7497   79.7599   14.5627 C.3     1  UNL1        0.0352
     25 O          62.5162   91.0197   10.9312 O.3     1  UNL1       -0.4347
     26 C          61.8796   89.9299   10.1206 C.ar    1  UNL1        0.2494
     27 C          60.6093   90.1984    9.3693 C.ar    1  UNL1        0.1569
     28 N          59.9727   89.1086    8.5587 N.ar    1  UNL1       -0.2328
     29 C          60.6064   87.7502    8.4994 C.ar    1  UNL1        0.1540
     30 C          61.8766   87.4818    9.2507 C.ar    1  UNL1        0.1258
     31 N          62.5132   88.5716   10.0613 N.ar    1  UNL1       -0.2068
     32 C          59.9698   86.6604    7.6888 C.2     1  UNL1        0.2683
     33 O          58.4817   86.6366    7.5016 O.2     1  UNL1       -0.2682
     34 N          60.8213   85.5944    7.0655 N.am    1  UNL1       -0.2747
     35 C          62.2908   85.2952    7.0320 C.3     1  UNL1        0.0955
     36 C          62.0254   84.0868    6.1839 C.3     1  UNL1        0.0430
     37 C          60.5559   84.3860    6.2173 C.3     1  UNL1        0.0955
     38 O          65.5441   92.4699   14.8972 O.3     1  UNL1       -0.4791
     39 C          67.0433   92.4696   14.8493 C.3     1  UNL1        0.1661
     40 C          67.7550   91.9398   13.6399 C.3     1  UNL1        0.0472
     41 C          67.8309   92.9993   16.0109 C.3     1  UNL1        0.0472
@<TRIPOS>BOND
     1    20    21    1
     2    21    19    1
     3    19    17    1
     4    17    18    2
     5    17    16    1
     6    16    11    1
     7    11    12   ar
     8    12    13   ar
     9    13    14   ar
    10    14     7    1
    11     7     8   am
    12     8     9    2
    13     8     1    1
    14     1     2   ar
    15     2     3   ar
    16     3    25    1
    17    25    26    1
    18    26    27   ar
    19    27    28   ar
    20    28    29   ar
    21    29    32    1
    22    32    33    2
    23    32    34   am
    24    34    35    1
    25    35    36    1
    26    36    37    1
    27    29    30   ar
    28    30    31   ar
    29     3     4   ar
    30     4     5   ar
    31     5    38    1
    32    38    39    1
    33    39    40    1
    34    39    41    1
    35     5     6   ar
    36    14    15   ar
    37    17    22    1
    38    22    23    1
    39    23    24    1
    40    15    11   ar
    41     6     1   ar
    42    31    26   ar
    43    37    34    1
    44     7    10    1
@<TRIPOS>MOLECULE
*****
 41 44 0 0 0
SMALL
GASTEIGER

@<TRIPOS>ATOM
      1 C          61.6110   89.5271    9.8508 C.ar    1  UNL1        0.0597
      2 C          60.6248   89.9957    8.8223 C.ar    1  UNL1        0.0423
      3 C          59.7849   88.9990    8.0799 C.ar    1  UNL1        0.1504
      4 C          59.9312   87.5339    8.3660 C.ar    1  UNL1        0.0744
      5 C          60.9174   87.0653    9.3945 C.ar    1  UNL1        0.1416
      6 C          61.7573   88.0619   10.1369 C.ar    1  UNL1        0.0416
      7 N          63.6379   91.1509    9.9240 N.am    1  UNL1       -0.2644
      8 C          62.4510   90.5238   10.5933 C.2     1  UNL1        0.2508
      9 O          62.1041   90.8933   12.0050 O.2     1  UNL1       -0.2698
     10 H          63.8656   90.9084    8.9974 H       1  UNL1        0.1566
     11 N          65.7351   93.2530   12.4236 N.ar    1  UNL1       -0.2357
     12 C          65.8058   94.1094   11.1941 C.ar    1  UNL1        0.0988
     13 C          65.0288   93.4261   10.1080 C.ar    1  UNL1        0.0565
     14 C          64.4779   92.1475   10.6664 C.ar    1  UNL1        0.1557
     15 N          64.9144   92.0406   12.0975 N.ar    1  UNL1       -0.1534
     16 C          66.3731   93.5560   13.7469 C.3     1  UNL1        0.2423
     17 P          66.7558   92.4364   14.6689 P.3     1  UNL1        0.3677
     18 O          67.1386   91.3169   15.5909 O.2     1  UNL1       -0.2557
     19 O          65.3557   92.3999   15.2059 O.3     1  UNL1       -0.2928
     20 C          63.6815   90.8401   16.4364 C.3     1  UNL1        0.0352
     21 C          64.6204   91.0955   15.2947 C.3     1  UNL1        0.1515
     22 O          68.1560   92.4730   14.1319 O.3     1  UNL1       -0.2928
     23 C          69.2849   92.9232   15.0111 C.3     1  UNL1        0.1515
     24 C          69.0548   93.9905   16.0397 C.3     1  UNL1        0.0352
     25 O          58.7986   89.4676    7.0514 O.3     1  UNL1       -0.4347
     26 C          59.2418   90.3851    5.9506 C.ar    1  UNL1        0.2494
     27 C          58.2480   91.2865    5.2799 C.ar    1  UNL1        0.1569
     28 N          58.6912   92.2041    4.1791 N.ar    1  UNL1       -0.2328
     29 C          60.1282   92.2202    3.7490 C.ar    1  UNL1        0.1540
     30 C          61.1219   91.3188    4.4198 C.ar    1  UNL1        0.1258
     31 N          60.6787   90.4012    5.5206 N.ar    1  UNL1       -0.2068
     32 C          60.5714   93.1377    2.6483 C.2     1  UNL1        0.2683
     33 O          59.5969   94.0995    2.0356 O.2     1  UNL1       -0.2682
     34 N          61.9891   93.0934    2.1602 N.am    1  UNL1       -0.2747
     35 C          63.2085   92.2949    2.5145 C.3     1  UNL1        0.0955
     36 C          63.9940   93.0309    1.4698 C.3     1  UNL1        0.0430
     37 C          62.7746   93.8294    1.1155 C.3     1  UNL1        0.0955
     38 O          61.0636   85.6001    9.6806 O.3     1  UNL1       -0.4791
     39 C          62.3042   85.0867   10.3494 C.3     1  UNL1        0.1661
     40 C          63.4189   84.5146    9.5246 C.3     1  UNL1        0.0472
     41 C          62.4302   85.1455   11.8430 C.3     1  UNL1        0.0472
@<TRIPOS>BOND
     1    20    21    1
     2    21    19    1
     3    19    17    1
     4    17    18    2
     5    17    16    1
     6    16    11    1
     7    11    12   ar
     8    12    13   ar
     9    13    14   ar
    10    14     7    1
    11     7     8   am
    12     8     9    2
    13     8     1    1
    14     1     2   ar
    15     2     3   ar
    16     3    25    1
    17    25    26    1
    18    26    27   ar
    19    27    28   ar
    20    28    29   ar
    21    29    32    1
    22    32    33    2
    23    32    34   am
    24    34    35    1
    25    35    36    1
    26    36    37    1
    27    29    30   ar
    28    30    31   ar
    29     3     4   ar
    30     4     5   ar
    31     5    38    1
    32    38    39    1
    33    39    40    1
    34    39    41    1
    35     5     6   ar
    36    14    15   ar
    37    17    22    1
    38    22    23    1
    39    23    24    1
    40    15    11   ar
    41     6     1   ar
    42    31    26   ar
    43    37    34    1
    44     7    10    1
@<TRIPOS>MOLECULE
*****
 41 44 0 0 0
SMALL
GASTEIGER

@<TRIPOS>ATOM
      1 C          61.5399   89.5187    9.7798 C.ar    1  UNL1        0.0597
      2 C          60.5571   90.0239    8.7655 C.ar    1  UNL1        0.0423
      3 C          59.7216   89.0544    7.9832 C.ar    1  UNL1        0.1504
      4 C          59.8690   87.5798    8.2151 C.ar    1  UNL1        0.0744
      5 C          60.8518   87.0746    9.2294 C.ar    1  UNL1        0.1416
      6 C          61.6873   88.0441   10.0117 C.ar    1  UNL1        0.0416
      7 N          63.6061   91.0850    9.9464 N.am    1  UNL1       -0.2644
      8 C          62.3754   90.4882   10.5622 C.2     1  UNL1        0.2508
      9 O          61.9802   90.8608   11.9604 O.2     1  UNL1       -0.2698
     10 H          63.8655   90.8404    9.0287 H       1  UNL1        0.1566
     11 N          65.6454   93.1222   12.5458 N.ar    1  UNL1       -0.2357
     12 C          65.8093   93.9705   11.3196 C.ar    1  UNL1        0.0988
     13 C          65.0653   93.3106   10.1965 C.ar    1  UNL1        0.0565
     14 C          64.4416   92.0545   10.7288 C.ar    1  UNL1        0.1557
     15 N          64.8001   91.9380   12.1806 N.ar    1  UNL1       -0.1534
     16 C          66.2249   93.4078   13.8994 C.3     1  UNL1        0.2423
     17 P          66.8475   92.3009   14.6976 P.3     1  UNL1        0.3677
     18 O          67.4700   91.1940   15.4959 O.2     1  UNL1       -0.2557
     19 O          68.2069   92.7266   14.2278 O.3     1  UNL1       -0.2928
     20 C          69.2437   94.2413   16.0664 C.3     1  UNL1        0.0352
     21 C          69.2934   93.0005   15.2251 C.3     1  UNL1        0.1515
     22 O          65.4880   91.8753   15.1675 O.3     1  UNL1       -0.2928
     23 C          65.0030   90.4819   14.8965 C.3     1  UNL1        0.1515
     24 C          63.6902   90.0223   15.4579 C.3     1  UNL1        0.0352
     25 O          58.7387   89.5596    6.9688 O.3     1  UNL1       -0.4347
     26 C          59.1966   90.4738    5.8713 C.ar    1  UNL1        0.2494
     27 C          58.2141   91.3820    5.1929 C.ar    1  UNL1        0.1569
     28 N          58.6720   92.2962    4.0955 N.ar    1  UNL1       -0.2328
     29 C          60.1123   92.3023    3.6764 C.ar    1  UNL1        0.1540
     30 C          61.0946   91.3942    4.3548 C.ar    1  UNL1        0.1258
     31 N          60.6368   90.4800    5.4523 N.ar    1  UNL1       -0.2068
     32 C          60.5702   93.2166    2.5789 C.2     1  UNL1        0.2683
     33 O          59.6073   94.1857    1.9594 O.2     1  UNL1       -0.2682
     34 N          61.9910   93.1618    2.1009 N.am    1  UNL1       -0.2747
     35 C          63.2018   92.3541    2.4638 C.3     1  UNL1        0.0955
     36 C          64.0002   93.0843    1.4248 C.3     1  UNL1        0.0430
     37 C          62.7894   93.8919    1.0619 C.3     1  UNL1        0.0955
     38 O          60.9992   85.6000    9.4613 O.3     1  UNL1       -0.4791
     39 C          62.3417   85.0251    9.8034 C.3     1  UNL1        0.1661
     40 C          63.3637   84.8138    8.7260 C.3     1  UNL1        0.0472
     41 C          62.6623   84.6615   11.2229 C.3     1  UNL1        0.0472
@<TRIPOS>BOND
     1    20    21    1
     2    21    19    1
     3    19    17    1
     4    17    18    2
     5    17    16    1
     6    16    11    1
     7    11    12   ar
     8    12    13   ar
     9    13    14   ar
    10    14     7    1
    11     7     8   am
    12     8     9    2
    13     8     1    1
    14     1     2   ar
    15     2     3   ar
    16     3    25    1
    17    25    26    1
    18    26    27   ar
    19    27    28   ar
    20    28    29   ar
    21    29    32    1
    22    32    33    2
    23    32    34   am
    24    34    35    1
    25    35    36    1
    26    36    37    1
    27    29    30   ar
    28    30    31   ar
    29     3     4   ar
    30     4     5   ar
    31     5    38    1
    32    38    39    1
    33    39    40    1
    34    39    41    1
    35     5     6   ar
    36    14    15   ar
    37    17    22    1
    38    22    23    1
    39    23    24    1
    40    15    11   ar
    41     6     1   ar
    42    31    26   ar
    43    37    34    1
    44     7    10    1
@<TRIPOS>MOLECULE
*****
 41 44 0 0 0
SMALL
GASTEIGER

@<TRIPOS>ATOM
      1 C          60.1952   88.5353    8.7459 C.ar    1  UNL1        0.0597
      2 C          60.4650   89.3603    9.9692 C.ar    1  UNL1        0.0423
      3 C          61.0876   88.7274   11.1782 C.ar    1  UNL1        0.1504
      4 C          61.4403   87.2696   11.1640 C.ar    1  UNL1        0.0744
      5 C          61.1705   86.4445    9.9407 C.ar    1  UNL1        0.1416
      6 C          60.5479   87.0774    8.7316 C.ar    1  UNL1        0.0416
      7 N          60.1929   90.3898    6.9263 N.am    1  UNL1       -0.2644
      8 C          59.5725   89.1681    7.5368 C.2     1  UNL1        0.2508
      9 O          58.3296   88.5793    6.9382 O.2     1  UNL1       -0.2698
     10 H          61.0087   90.7762    7.3192 H       1  UNL1        0.1566
     11 N          59.2869   92.2380    3.6356 N.ar    1  UNL1       -0.2357
     12 C          57.9373   91.7548    4.0776 C.ar    1  UNL1        0.0988
     13 C          58.1125   91.0036    5.3641 C.ar    1  UNL1        0.0565
     14 C          59.5702   91.0226    5.7171 C.ar    1  UNL1        0.1557
     15 N          60.2960   91.7855    4.6489 N.ar    1  UNL1       -0.1534
     16 C          59.5764   93.0340    2.3976 C.3     1  UNL1        0.2423
     17 P          60.6430   92.5794    1.4459 P.3     1  UNL1        0.3677
     18 O          61.7095   92.1248    0.4942 O.2     1  UNL1       -0.2557
     19 O          61.6969   92.9861    2.4327 O.3     1  UNL1       -0.2928
     20 C          63.2882   91.0790    3.1947 C.3     1  UNL1        0.0352
     21 C          63.0454   92.3297    2.4031 C.3     1  UNL1        0.1515
     22 O          59.5889   92.1726    0.4591 O.3     1  UNL1       -0.2928
     23 C          58.5208   93.1466    0.0585 C.3     1  UNL1        0.1515
     24 C          57.4556   92.7337   -0.9135 C.3     1  UNL1        0.0352
     25 O          61.3575   89.5524   12.4016 O.3     1  UNL1       -0.4347
     26 C          62.6910   90.2157   12.5797 C.ar    1  UNL1        0.2494
     27 C          63.5094   89.9372   13.8057 C.ar    1  UNL1        0.1569
     28 N          64.8430   90.6004   13.9838 N.ar    1  UNL1       -0.2328
     29 C          65.3582   91.5421   12.9360 C.ar    1  UNL1        0.1540
     30 C          64.5398   91.8205   11.7101 C.ar    1  UNL1        0.1258
     31 N          63.2063   91.1573   11.5320 N.ar    1  UNL1       -0.2068
     32 C          66.6917   92.2053   13.1141 C.2     1  UNL1        0.2683
     33 O          67.5449   92.5073   11.9180 O.2     1  UNL1       -0.2682
     34 N          67.1721   92.5666   14.4885 N.am    1  UNL1       -0.2747
     35 C          66.6190   92.4280   15.8759 C.3     1  UNL1        0.0955
     36 C          67.8515   93.0775   16.4321 C.3     1  UNL1        0.0430
     37 C          68.4045   93.2161   15.0446 C.3     1  UNL1        0.0955
     38 O          61.5232   84.9867    9.9264 O.3     1  UNL1       -0.4791
     39 C          62.8301   84.5369    9.3436 C.3     1  UNL1        0.1661
     40 C          63.7519   83.6702   10.1493 C.3     1  UNL1        0.0472
     41 C          63.2153   84.9539    7.9551 C.3     1  UNL1        0.0472
@<TRIPOS>BOND
     1    20    21    1
     2    21    19    1
     3    19    17    1
     4    17    18    2
     5    17    16    1
     6    16    11    1
     7    11    12   ar
     8    12    13   ar
     9    13    14   ar
    10    14     7    1
    11     7     8   am
    12     8     9    2
    13     8     1    1
    14     1     2   ar
    15     2     3   ar
    16     3    25    1
    17    25    26    1
    18    26    27   ar
    19    27    28   ar
    20    28    29   ar
    21    29    32    1
    22    32    33    2
    23    32    34   am
    24    34    35    1
    25    35    36    1
    26    36    37    1
    27    29    30   ar
    28    30    31   ar
    29     3     4   ar
    30     4     5   ar
    31     5    38    1
    32    38    39    1
    33    39    40    1
    34    39    41    1
    35     5     6   ar
    36    14    15   ar
    37    17    22    1
    38    22    23    1
    39    23    24    1
    40    15    11   ar
    41     6     1   ar
    42    31    26   ar
    43    37    34    1
    44     7    10    1
