@<TRIPOS>MOLECULE
*****
 28 31 0 0 0
SMALL
GASTEIGER

@<TRIPOS>ATOM
      1 C          64.2837   89.8367   14.4050 C.2     1  UNL1       -0.0021
      2 C          65.1301   91.0046   14.8169 C.2     1  UNL1        0.0942
      3 N          65.1883   91.9639   13.6653 N.2     1  UNL1       -0.2482
      4 C          64.3778   91.3890   12.5416 C.2     1  UNL1        0.0633
      5 C          64.0767   91.8927   11.1612 C.3     1  UNL1        0.0753
      6 C          63.2165   91.0818   10.2380 C.2     1  UNL1        0.0203
      7 C          62.6575   89.7671   10.6952 C.2     1  UNL1        0.1317
      8 C          62.9586   89.2633   12.0756 C.2     1  UNL1        0.0407
      9 C          63.8188   90.0743   12.9988 C.2     1  UNL1        0.0148
     10 C          64.0861   86.0802   15.6698 C.3     1  UNL1        0.0543
     11 C          63.3103   86.2500   16.9423 C.3     1  UNL1        0.0157
     12 C          62.8590   87.6153   17.3690 C.3     1  UNL1        0.0017
     13 C          63.1835   88.8109   16.5232 C.3     1  UNL1        0.0045
     14 C          63.9592   88.6412   15.2508 C.3     1  UNL1        0.0252
     15 C          64.4106   87.2757   14.8240 C.3     1  UNL1        0.0201
     16 C          63.5334   83.6147   15.0652 C.3     1  UNL1        0.0858
     17 N          64.5374   84.7149   15.2430 N.3     1  UNL1       -0.2974
     18 H          65.0117   84.8282   14.3471 H       1  UNL1        0.1232
     19 N          61.7973   88.9561    9.7719 N.pl3   1  UNL1       -0.1992
     20 H          61.6327   89.2670    8.8524 H       1  UNL1        0.2985
     21 C          61.1878   87.6715   10.2496 C.2     1  UNL1        0.3224
     22 N          59.8060   87.6683   10.8333 N.2     1  UNL1       -0.0985
     23 H          59.2991   88.5095   10.9029 H       1  UNL1        0.3633
     24 C          61.9601   86.3899   10.1436 C.ar    1  UNL1        0.1114
     25 C          62.5918   85.8417    8.8984 C.ar    1  UNL1        0.0144
     26 C          63.2584   84.5445    9.2494 C.ar    1  UNL1        0.0077
     27 C          63.0385   84.2910   10.7114 C.ar    1  UNL1        0.0357
     28 S          62.2361   85.4316   11.2640 S.2     1  UNL1       -0.0792
@<TRIPOS>BOND
     1    16    17    1
     2    17    10    1
     3    10    11    1
     4    11    12    1
     5    12    13    1
     6    13    14    1
     7    14     1    1
     8     1     2    2
     9     2     3    1
    10     3     4    2
    11     4     5    1
    12     5     6    1
    13     6     7    2
    14     7    19    1
    15    19    21    1
    16    21    22    2
    17    21    24    1
    18    24    25   ar
    19    25    26   ar
    20    26    27   ar
    21    27    28   ar
    22     7     8    1
    23     8     9    2
    24    14    15    1
    25    15    10    1
    26     9     1    1
    27     9     4    1
    28    28    24   ar
    29    17    18    1
    30    19    20    1
    31    22    23    1
@<TRIPOS>MOLECULE
*****
 28 31 0 0 0
SMALL
GASTEIGER

@<TRIPOS>ATOM
      1 C          61.7338   86.1999    9.7699 C.2     1  UNL1       -0.0021
      2 C          60.9222   86.0801    8.5142 C.2     1  UNL1        0.0942
      3 N          60.2462   87.3971    8.2719 N.2     1  UNL1       -0.2482
      4 C          60.6400   88.3308    9.3778 C.2     1  UNL1        0.0633
      5 C          60.2803   89.7591    9.6614 C.3     1  UNL1        0.0753
      6 C          60.8400   90.4475   10.8709 C.2     1  UNL1        0.0203
      7 C          61.7594   89.7076   11.7967 C.2     1  UNL1        0.1317
      8 C          62.1192   88.2793   11.5131 C.2     1  UNL1        0.0407
      9 C          61.5595   87.5909   10.3037 C.2     1  UNL1        0.0148
     10 C          63.3779   83.8131   12.4811 C.3     1  UNL1        0.0543
     11 C          64.2502   82.9560   11.6125 C.3     1  UNL1        0.0157
     12 C          64.2838   83.1803   10.1298 C.3     1  UNL1        0.0017
     13 C          63.4450   84.2616    9.5156 C.3     1  UNL1        0.0045
     14 C          62.5726   85.1186   10.3841 C.3     1  UNL1        0.0252
     15 C          62.5391   84.8944   11.8669 C.3     1  UNL1        0.0201
     16 C          62.3082   82.6841   14.5622 C.3     1  UNL1        0.0858
     17 N          63.3443   83.5889   13.9638 N.3     1  UNL1       -0.2974
     18 H          64.2538   83.2081   14.2248 H       1  UNL1        0.1232
     19 N          62.3191   90.3961   13.0062 N.pl3   1  UNL1       -0.1992
     20 H          61.7118   90.7854   13.6761 H       1  UNL1        0.2985
     21 C          63.8041   90.4914   13.1949 C.2     1  UNL1        0.3224
     22 N          64.5034   89.5494   14.1296 N.2     1  UNL1       -0.0985
     23 H          63.9877   88.8685   14.6192 H       1  UNL1        0.3633
     24 C          64.5899   91.5289   12.4489 C.ar    1  UNL1        0.1114
     25 C          64.4414   91.8715   10.9962 C.ar    1  UNL1        0.0144
     26 C          65.4219   92.9601   10.6741 C.ar    1  UNL1        0.0077
     27 C          66.1763   93.2902   11.9279 C.ar    1  UNL1        0.0357
     28 S          65.6621   92.4057   13.0248 S.2     1  UNL1       -0.0792
@<TRIPOS>BOND
     1    16    17    1
     2    17    10    1
     3    10    11    1
     4    11    12    1
     5    12    13    1
     6    13    14    1
     7    14     1    1
     8     1     2    2
     9     2     3    1
    10     3     4    2
    11     4     5    1
    12     5     6    1
    13     6     7    2
    14     7    19    1
    15    19    21    1
    16    21    22    2
    17    21    24    1
    18    24    25   ar
    19    25    26   ar
    20    26    27   ar
    21    27    28   ar
    22     7     8    1
    23     8     9    2
    24    14    15    1
    25    15    10    1
    26     9     1    1
    27     9     4    1
    28    28    24   ar
    29    17    18    1
    30    19    20    1
    31    22    23    1
@<TRIPOS>MOLECULE
*****
 28 31 0 0 0
SMALL
GASTEIGER

@<TRIPOS>ATOM
      1 C          62.3334   88.9953   10.8665 C.2     1  UNL1       -0.0021
      2 C          62.4744   90.4887   10.8668 C.2     1  UNL1        0.0942
      3 N          63.2381   90.8819   12.0964 N.2     1  UNL1       -0.2482
      4 C          63.5691   89.6316   12.8562 C.2     1  UNL1        0.0633
      5 C          64.3073   89.4041   14.1419 C.3     1  UNL1        0.0753
      6 C          64.4865   88.0107   14.6675 C.2     1  UNL1        0.0203
      7 C          63.9274   86.8448   13.9073 C.2     1  UNL1        0.1317
      8 C          63.1891   87.0722   12.6216 C.2     1  UNL1        0.0407
      9 C          63.0099   88.4656   12.0960 C.2     1  UNL1        0.0148
     10 C          59.8706   87.9744    7.9266 C.3     1  UNL1        0.0543
     11 C          60.2470   86.5361    7.7281 C.3     1  UNL1        0.0157
     12 C          61.3188   85.9175    8.5757 C.3     1  UNL1        0.0017
     13 C          62.0143   86.7372    9.6219 C.3     1  UNL1        0.0045
     14 C          61.6380   88.1755    9.8204 C.3     1  UNL1        0.0252
     15 C          60.5661   88.7942    8.9727 C.3     1  UNL1        0.0201
     16 C          59.1164   89.7772    6.2147 C.3     1  UNL1        0.0858
     17 N          58.7988   88.5931    7.0790 N.3     1  UNL1       -0.2974
     18 H          58.4538   87.8602    6.4592 H       1  UNL1        0.1232
     19 N          64.1065   85.4513   14.4330 N.pl3   1  UNL1       -0.1992
     20 H          65.0030   85.1317   14.6848 H       1  UNL1        0.2985
     21 C          62.9199   84.5449   14.5749 C.2     1  UNL1        0.3224
     22 N          61.8628   84.8474   15.5952 N.2     1  UNL1       -0.0985
     23 H          61.9478   85.6409   16.1717 H       1  UNL1        0.3633
     24 C          62.7903   83.3358   13.6965 C.ar    1  UNL1        0.1114
     25 C          63.0316   83.2913   12.2167 C.ar    1  UNL1        0.0144
     26 C          62.7871   81.8870   11.7492 C.ar    1  UNL1        0.0077
     27 C          62.3946   81.0638   12.9402 C.ar    1  UNL1        0.0357
     28 S          62.3966   81.9592   14.1436 S.2     1  UNL1       -0.0792
@<TRIPOS>BOND
     1    16    17    1
     2    17    10    1
     3    10    11    1
     4    11    12    1
     5    12    13    1
     6    13    14    1
     7    14     1    1
     8     1     2    2
     9     2     3    1
    10     3     4    2
    11     4     5    1
    12     5     6    1
    13     6     7    2
    14     7    19    1
    15    19    21    1
    16    21    22    2
    17    21    24    1
    18    24    25   ar
    19    25    26   ar
    20    26    27   ar
    21    27    28   ar
    22     7     8    1
    23     8     9    2
    24    14    15    1
    25    15    10    1
    26     9     1    1
    27     9     4    1
    28    28    24   ar
    29    17    18    1
    30    19    20    1
    31    22    23    1
@<TRIPOS>MOLECULE
*****
 28 31 0 0 0
SMALL
GASTEIGER

@<TRIPOS>ATOM
      1 C          62.2301   88.7485   10.7551 C.2     1  UNL1       -0.0021
      2 C          62.3194   90.2438   10.6768 C.2     1  UNL1        0.0942
      3 N          63.0742   90.7266   11.8798 N.2     1  UNL1       -0.2482
      4 C          63.4513   89.5298   12.7016 C.2     1  UNL1        0.0633
      5 C          64.2024   89.3952   13.9930 C.3     1  UNL1        0.0753
      6 C          64.4317   88.0381   14.5893 C.2     1  UNL1        0.0203
      7 C          63.9099   86.8156   13.8942 C.2     1  UNL1        0.1317
      8 C          63.1589   86.9501   12.6028 C.2     1  UNL1        0.0407
      9 C          62.9296   88.3072   12.0065 C.2     1  UNL1        0.0148
     10 C          61.6772   85.8892    8.0590 C.3     1  UNL1        0.0543
     11 C          60.2168   86.0587    7.7615 C.3     1  UNL1        0.0157
     12 C          59.4275   87.1247    8.4619 C.3     1  UNL1        0.0017
     13 C          60.0986   88.0213    9.4597 C.3     1  UNL1        0.0045
     14 C          61.5589   87.8519    9.7573 C.3     1  UNL1        0.0252
     15 C          62.3483   86.7858    9.0569 C.3     1  UNL1        0.0201
     16 C          62.0829   84.3938    5.9736 C.3     1  UNL1        0.0858
     17 N          62.4666   84.8232    7.3587 N.3     1  UNL1       -0.2974
     18 H          63.4296   85.1554    7.3079 H       1  UNL1        0.1232
     19 N          64.1393   85.4584   14.4906 N.pl3   1  UNL1       -0.1992
     20 H          65.0501   85.1755   14.7347 H       1  UNL1        0.2985
     21 C          62.9809   84.5323   14.7150 C.2     1  UNL1        0.3224
     22 N          62.0140   84.7973   15.8308 N.2     1  UNL1       -0.0985
     23 H          62.1398   85.5790   16.4159 H       1  UNL1        0.3633
     24 C          62.7892   83.3412   13.8236 C.ar    1  UNL1        0.1114
     25 C          63.0081   83.3060   12.3400 C.ar    1  UNL1        0.0144
     26 C          62.6992   81.9192   11.8587 C.ar    1  UNL1        0.0077
     27 C          62.2896   81.0974   13.0449 C.ar    1  UNL1        0.0357
     28 S          62.3452   81.9763   14.2592 S.2     1  UNL1       -0.0792
@<TRIPOS>BOND
     1    16    17    1
     2    17    10    1
     3    10    11    1
     4    11    12    1
     5    12    13    1
     6    13    14    1
     7    14     1    1
     8     1     2    2
     9     2     3    1
    10     3     4    2
    11     4     5    1
    12     5     6    1
    13     6     7    2
    14     7    19    1
    15    19    21    1
    16    21    22    2
    17    21    24    1
    18    24    25   ar
    19    25    26   ar
    20    26    27   ar
    21    27    28   ar
    22     7     8    1
    23     8     9    2
    24    14    15    1
    25    15    10    1
    26     9     1    1
    27     9     4    1
    28    28    24   ar
    29    17    18    1
    30    19    20    1
    31    22    23    1
@<TRIPOS>MOLECULE
*****
 28 31 0 0 0
SMALL
GASTEIGER

@<TRIPOS>ATOM
      1 C          62.5607   86.0933   11.7265 C.2     1  UNL1       -0.0021
      2 C          61.9294   85.4652   10.5195 C.2     1  UNL1        0.0942
      3 N          61.5646   86.5621    9.5636 N.2     1  UNL1       -0.2482
      4 C          61.9705   87.8681   10.1798 C.2     1  UNL1        0.0633
      5 C          61.8590   89.2837    9.6965 C.3     1  UNL1        0.0753
      6 C          62.3632   90.4094   10.5499 C.2     1  UNL1        0.0203
      7 C          62.9788   90.1197   11.8867 C.2     1  UNL1        0.1317
      8 C          63.0903   88.7041   12.3701 C.2     1  UNL1        0.0407
      9 C          62.5861   87.5783   11.5167 C.2     1  UNL1        0.0148
     10 C          63.0782   83.2633   14.4604 C.3     1  UNL1        0.0543
     11 C          64.1069   83.9062   15.3427 C.3     1  UNL1        0.0157
     12 C          64.6202   85.2781   15.0196 C.3     1  UNL1        0.0017
     13 C          64.1047   86.0071   13.8142 C.3     1  UNL1        0.0045
     14 C          63.0761   85.3643   12.9319 C.3     1  UNL1        0.0252
     15 C          62.5628   83.9923   13.2550 C.3     1  UNL1        0.0201
     16 C          61.4860   81.2770   13.9417 C.3     1  UNL1        0.0858
     17 N          62.5648   81.8914   14.7834 N.3     1  UNL1       -0.2974
     18 H          63.3652   81.2605   14.7429 H       1  UNL1        0.1232
     19 N          63.4830   91.2456   12.7401 N.pl3   1  UNL1       -0.1992
     20 H          62.9666   91.5369   13.5261 H       1  UNL1        0.2985
     21 C          64.7739   91.9275   12.3961 C.2     1  UNL1        0.3224
     22 N          65.0588   92.3222   10.9773 N.2     1  UNL1       -0.0985
     23 H          64.3984   92.1337   10.2718 H       1  UNL1        0.3633
     24 C          65.7801   92.2147   13.4709 C.ar    1  UNL1        0.1114
     25 C          66.2226   91.2620   14.5417 C.ar    1  UNL1        0.0144
     26 C          67.2364   91.9636   15.3963 C.ar    1  UNL1        0.0077
     27 C          67.4204   93.3498   14.8535 C.ar    1  UNL1        0.0357
     28 S          66.5203   93.5050   13.6636 S.2     1  UNL1       -0.0792
@<TRIPOS>BOND
     1    16    17    1
     2    17    10    1
     3    10    11    1
     4    11    12    1
     5    12    13    1
     6    13    14    1
     7    14     1    1
     8     1     2    2
     9     2     3    1
    10     3     4    2
    11     4     5    1
    12     5     6    1
    13     6     7    2
    14     7    19    1
    15    19    21    1
    16    21    22    2
    17    21    24    1
    18    24    25   ar
    19    25    26   ar
    20    26    27   ar
    21    27    28   ar
    22     7     8    1
    23     8     9    2
    24    14    15    1
    25    15    10    1
    26     9     1    1
    27     9     4    1
    28    28    24   ar
    29    17    18    1
    30    19    20    1
    31    22    23    1
@<TRIPOS>MOLECULE
*****
 28 31 0 0 0
SMALL
GASTEIGER

@<TRIPOS>ATOM
      1 C          62.8368   90.1683   11.6940 C.2     1  UNL1       -0.0021
      2 C          61.8319   90.8262   10.7956 C.2     1  UNL1        0.0942
      3 N          60.9708   89.7527   10.1989 N.2     1  UNL1       -0.2482
      4 C          61.4436   88.4313   10.7286 C.2     1  UNL1        0.0633
      5 C          60.9729   87.0274   10.4889 C.3     1  UNL1        0.0753
      6 C          61.6556   85.8804   11.1732 C.2     1  UNL1        0.0203
      7 C          62.8089   86.1374   12.0973 C.2     1  UNL1        0.1317
      8 C          63.2795   87.5412   12.3370 C.2     1  UNL1        0.0407
      9 C          62.5969   88.6882   11.6526 C.2     1  UNL1        0.0148
     10 C          65.7734   92.6556   12.6639 C.3     1  UNL1        0.0543
     11 C          66.0141   92.2667   14.0925 C.3     1  UNL1        0.0157
     12 C          65.1957   91.1784   14.7215 C.3     1  UNL1        0.0017
     13 C          64.1366   90.4789   13.9220 C.3     1  UNL1        0.0045
     14 C          63.8959   90.8678   12.4935 C.3     1  UNL1        0.0252
     15 C          64.7143   91.9562   11.8644 C.3     1  UNL1        0.0201
     16 C          66.0967   94.4354   10.7991 C.3     1  UNL1        0.0858
     17 N          66.5917   93.7440   12.0348 N.3     1  UNL1       -0.2974
     18 H          66.7184   94.4651   12.7450 H       1  UNL1        0.1232
     19 N          63.4915   84.9903   12.7816 N.pl3   1  UNL1       -0.1992
     20 H          64.4528   84.8330   12.6382 H       1  UNL1        0.2985
     21 C          62.7097   84.0829   13.6845 C.2     1  UNL1        0.3224
     22 N          62.0474   84.6350   14.9119 N.2     1  UNL1       -0.0985
     23 H          62.1258   85.5930   15.1249 H       1  UNL1        0.3633
     24 C          62.5901   82.6232   13.3601 C.ar    1  UNL1        0.1114
     25 C          63.0628   81.9583   12.1013 C.ar    1  UNL1        0.0144
     26 C          62.7417   80.4964   12.2007 C.ar    1  UNL1        0.0077
     27 C          62.0707   80.2579   13.5209 C.ar    1  UNL1        0.0357
     28 S          61.9770   81.5723   14.2374 S.2     1  UNL1       -0.0792
@<TRIPOS>BOND
     1    16    17    1
     2    17    10    1
     3    10    11    1
     4    11    12    1
     5    12    13    1
     6    13    14    1
     7    14     1    1
     8     1     2    2
     9     2     3    1
    10     3     4    2
    11     4     5    1
    12     5     6    1
    13     6     7    2
    14     7    19    1
    15    19    21    1
    16    21    22    2
    17    21    24    1
    18    24    25   ar
    19    25    26   ar
    20    26    27   ar
    21    27    28   ar
    22     7     8    1
    23     8     9    2
    24    14    15    1
    25    15    10    1
    26     9     1    1
    27     9     4    1
    28    28    24   ar
    29    17    18    1
    30    19    20    1
    31    22    23    1
@<TRIPOS>MOLECULE
*****
 28 31 0 0 0
SMALL
GASTEIGER

@<TRIPOS>ATOM
      1 C          62.8036   84.2954   11.9205 C.2     1  UNL1       -0.0021
      2 C          62.6678   82.8599   12.3338 C.2     1  UNL1        0.0942
      3 N          63.1423   82.7389   13.7516 N.2     1  UNL1       -0.2482
      4 C          63.5713   84.0996   14.2146 C.2     1  UNL1        0.0633
      5 C          64.1255   84.5870   15.5205 C.3     1  UNL1        0.0753
      6 C          64.4704   86.0363   15.6946 C.2     1  UNL1        0.0203
      7 C          64.2611   86.9983   14.5630 C.2     1  UNL1        0.1317
      8 C          63.7069   86.5110   13.2571 C.2     1  UNL1        0.0407
      9 C          63.3620   85.0616   13.0829 C.2     1  UNL1        0.0148
     10 C          60.9348   86.3895    9.1147 C.3     1  UNL1        0.0543
     11 C          61.7250   86.0038    7.8995 C.3     1  UNL1        0.0157
     12 C          62.8748   85.0486    8.0247 C.3     1  UNL1        0.0017
     13 C          63.2343   84.4792    9.3650 C.3     1  UNL1        0.0045
     14 C          62.4441   84.8649   10.5802 C.3     1  UNL1        0.0252
     15 C          61.2943   85.8201   10.4550 C.3     1  UNL1        0.0201
     16 C          60.0279   88.7565    8.5449 C.3     1  UNL1        0.0858
     17 N          59.7850   87.3446    8.9896 N.3     1  UNL1       -0.2974
     18 H          59.1322   86.9338    8.3221 H       1  UNL1        0.1232
     19 N          64.6060   88.4478   14.7372 N.pl3   1  UNL1       -0.1992
     20 H          65.4971   88.7055   15.0670 H       1  UNL1        0.2985
     21 C          63.5932   89.5044   14.4089 C.2     1  UNL1        0.3224
     22 N          62.5429   89.8745   15.4138 N.2     1  UNL1       -0.0985
     23 H          62.5182   89.4240   16.2888 H       1  UNL1        0.3633
     24 C          63.6308   90.1910   13.0758 C.ar    1  UNL1        0.1114
     25 C          62.8693   89.7797   11.8506 C.ar    1  UNL1        0.0144
     26 C          63.2043   90.7439   10.7513 C.ar    1  UNL1        0.0077
     27 C          64.1728   91.7509   11.2972 C.ar    1  UNL1        0.0357
     28 S          64.4364   91.4092   12.7338 S.2     1  UNL1       -0.0792
@<TRIPOS>BOND
     1    16    17    1
     2    17    10    1
     3    10    11    1
     4    11    12    1
     5    12    13    1
     6    13    14    1
     7    14     1    1
     8     1     2    2
     9     2     3    1
    10     3     4    2
    11     4     5    1
    12     5     6    1
    13     6     7    2
    14     7    19    1
    15    19    21    1
    16    21    22    2
    17    21    24    1
    18    24    25   ar
    19    25    26   ar
    20    26    27   ar
    21    27    28   ar
    22     7     8    1
    23     8     9    2
    24    14    15    1
    25    15    10    1
    26     9     1    1
    27     9     4    1
    28    28    24   ar
    29    17    18    1
    30    19    20    1
    31    22    23    1
@<TRIPOS>MOLECULE
*****
 28 31 0 0 0
SMALL
GASTEIGER

@<TRIPOS>ATOM
      1 C          62.2722   86.3502    9.5800 C.2     1  UNL1       -0.0021
      2 C          62.2756   85.8854    8.1538 C.2     1  UNL1        0.0942
      3 N          62.9128   84.5282    8.1102 N.2     1  UNL1       -0.2482
      4 C          63.3032   84.1542    9.5094 C.2     1  UNL1        0.0633
      5 C          63.9681   82.9337   10.0737 C.3     1  UNL1        0.0753
      6 C          64.2371   82.8394   11.5463 C.2     1  UNL1        0.0203
      7 C          63.8412   83.9655   12.4547 C.2     1  UNL1        0.1317
      8 C          63.1763   85.1860   11.8904 C.2     1  UNL1        0.0407
      9 C          62.9073   85.2803   10.4178 C.2     1  UNL1        0.0148
     10 C          61.7540   89.5835   11.8222 C.3     1  UNL1        0.0543
     11 C          60.6430   90.2670   11.0817 C.3     1  UNL1        0.0157
     12 C          60.0750   89.6448    9.8406 C.3     1  UNL1        0.0017
     13 C          60.6181   88.3393    9.3400 C.3     1  UNL1        0.0045
     14 C          61.7291   87.6558   10.0805 C.3     1  UNL1        0.0252
     15 C          62.2971   88.2780   11.3217 C.3     1  UNL1        0.0201
     16 C          63.6713   90.8597   13.0243 C.3     1  UNL1        0.0858
     17 N          62.3220   90.2056   13.0633 N.3     1  UNL1       -0.2974
     18 H          61.6579   90.9182   13.3660 H       1  UNL1        0.1232
     19 N          64.1102   83.8711   13.9274 N.pl3   1  UNL1       -0.1992
     20 H          63.7412   83.1215   14.4481 H       1  UNL1        0.2985
     21 C          64.9413   84.9189   14.6066 C.2     1  UNL1        0.3224
     22 N          66.4382   84.8366   14.5581 N.2     1  UNL1       -0.0985
     23 H          66.8752   84.0950   14.0804 H       1  UNL1        0.3633
     24 C          64.2754   86.0489   15.3345 C.ar    1  UNL1        0.1114
     25 C          64.3420   87.4998   14.9597 C.ar    1  UNL1        0.0144
     26 C          63.5339   88.2741   15.9585 C.ar    1  UNL1        0.0077
     27 C          62.9679   87.3016   16.9506 C.ar    1  UNL1        0.0357
     28 S          63.4262   85.9264   16.5649 S.2     1  UNL1       -0.0792
@<TRIPOS>BOND
     1    16    17    1
     2    17    10    1
     3    10    11    1
     4    11    12    1
     5    12    13    1
     6    13    14    1
     7    14     1    1
     8     1     2    2
     9     2     3    1
    10     3     4    2
    11     4     5    1
    12     5     6    1
    13     6     7    2
    14     7    19    1
    15    19    21    1
    16    21    22    2
    17    21    24    1
    18    24    25   ar
    19    25    26   ar
    20    26    27   ar
    21    27    28   ar
    22     7     8    1
    23     8     9    2
    24    14    15    1
    25    15    10    1
    26     9     1    1
    27     9     4    1
    28    28    24   ar
    29    17    18    1
    30    19    20    1
    31    22    23    1
@<TRIPOS>MOLECULE
*****
 28 31 0 0 0
SMALL
GASTEIGER

@<TRIPOS>ATOM
      1 C          62.8790   85.2550   11.7965 C.2     1  UNL1       -0.0021
      2 C          63.0226   83.9340   12.4924 C.2     1  UNL1        0.0942
      3 N          63.5903   84.1885   13.8573 N.2     1  UNL1       -0.2482
      4 C          63.7976   85.6667   14.0049 C.2     1  UNL1        0.0633
      5 C          64.3300   86.4977   15.1345 C.3     1  UNL1        0.0753
      6 C          64.4226   87.9879   14.9905 C.2     1  UNL1        0.0203
      7 C          63.9829   88.6470   13.7168 C.2     1  UNL1        0.1317
      8 C          63.4506   87.8160   12.5872 C.2     1  UNL1        0.0407
      9 C          63.3580   86.3259   12.7313 C.2     1  UNL1        0.0148
     10 C          60.5329   86.4236    8.8165 C.3     1  UNL1        0.0543
     11 C          61.2900   85.8935    7.6350 C.3     1  UNL1        0.0157
     12 C          62.5767   85.1505    7.8408 C.3     1  UNL1        0.0017
     13 C          63.1063   84.9377    9.2279 C.3     1  UNL1        0.0045
     14 C          62.3493   85.4678   10.4094 C.3     1  UNL1        0.0252
     15 C          61.0625   86.2108   10.2036 C.3     1  UNL1        0.0201
     16 C          59.1282   88.1693    7.5016 C.3     1  UNL1        0.0858
     17 N          59.2461   87.1665    8.6108 N.3     1  UNL1       -0.2974
     18 H          58.5232   86.4648    8.4515 H       1  UNL1        0.1232
     19 N          64.0756   90.1373   13.5728 N.pl3   1  UNL1       -0.1992
     20 H          63.9214   90.5576   12.6960 H       1  UNL1        0.2985
     21 C          64.4032   90.9870   14.7647 C.2     1  UNL1        0.3224
     22 N          63.3920   91.1678   15.8576 N.2     1  UNL1       -0.0985
     23 H          62.5132   90.7288   15.7927 H       1  UNL1        0.3633
     24 C          65.7422   91.6560   14.8636 C.ar    1  UNL1        0.1114
     25 C          66.8727   91.5143   13.8879 C.ar    1  UNL1        0.0144
     26 C          68.0150   92.3548   14.3768 C.ar    1  UNL1        0.0077
     27 C          67.5903   93.0159   15.6546 C.ar    1  UNL1        0.0357
     28 S          66.1857   92.5839   15.9554 S.2     1  UNL1       -0.0792
@<TRIPOS>BOND
     1    16    17    1
     2    17    10    1
     3    10    11    1
     4    11    12    1
     5    12    13    1
     6    13    14    1
     7    14     1    1
     8     1     2    2
     9     2     3    1
    10     3     4    2
    11     4     5    1
    12     5     6    1
    13     6     7    2
    14     7    19    1
    15    19    21    1
    16    21    22    2
    17    21    24    1
    18    24    25   ar
    19    25    26   ar
    20    26    27   ar
    21    27    28   ar
    22     7     8    1
    23     8     9    2
    24    14    15    1
    25    15    10    1
    26     9     1    1
    27     9     4    1
    28    28    24   ar
    29    17    18    1
    30    19    20    1
    31    22    23    1
