@<TRIPOS>MOLECULE
*****
 15 17 0 0 0
SMALL
GASTEIGER

@<TRIPOS>ATOM
      1 CL         64.4309   83.0353   11.0359 Cl      1  UNL1       -0.0814
      2 C          63.5099   84.0845   10.4873 C.ar    1  UNL1        0.0682
      3 C          63.5326   84.4113    9.0235 C.ar    1  UNL1        0.0119
      4 C          62.6116   85.4605    8.4749 C.ar    1  UNL1       -0.0033
      5 C          61.6679   86.1828    9.3900 C.ar    1  UNL1       -0.0206
      6 C          61.6451   85.8560   10.8537 C.ar    1  UNL1        0.0080
      7 C          62.5661   84.8068   11.4024 C.ar    1  UNL1        0.0679
      8 CL         62.5433   84.4800   12.8662 Cl      1  UNL1       -0.0814
      9 C          60.7469   87.2319    8.8413 C.3     1  UNL1        0.0348
     10 C          59.8653   86.2852    8.0820 C.3     1  UNL1        0.0726
     11 N          58.8003   87.0905    7.3985 N.3     1  UNL1       -0.2972
     12 C          59.0236   88.5351    7.7355 C.3     1  UNL1        0.0689
     13 C          60.2266   88.6224    8.6272 C.3     1  UNL1        0.0211
     14 C          61.4358   88.3981    9.4860 C.3     1  UNL1        0.0072
     15 H          57.8802   86.7968    7.7265 H       1  UNL1        0.1233
@<TRIPOS>BOND
     1     1     2    1
     2     2     3   ar
     3     3     4   ar
     4     4     5   ar
     5     5     9    1
     6     9    10    1
     7    10    11    1
     8    11    12    1
     9    12    13    1
    10    13    14    1
    11     5     6   ar
    12     6     7   ar
    13     7     8    1
    14     7     2   ar
    15    13     9    1
    16    14     9    1
    17    11    15    1
@<TRIPOS>MOLECULE
*****
 15 17 0 0 0
SMALL
GASTEIGER

@<TRIPOS>ATOM
      1 CL         62.4014   89.3698   11.6090 Cl      1  UNL1       -0.0814
      2 C          63.4730   90.0503   12.4081 C.ar    1  UNL1        0.0682
      3 C          63.8850   89.4928   13.7382 C.ar    1  UNL1        0.0119
      4 C          64.9566   90.1733   14.5373 C.ar    1  UNL1       -0.0033
      5 C          65.6162   91.4114   14.0063 C.ar    1  UNL1       -0.0206
      6 C          65.2041   91.9690   12.6762 C.ar    1  UNL1        0.0080
      7 C          64.1325   91.2885   11.8771 C.ar    1  UNL1        0.0679
      8 CL         63.7205   91.8461   10.5469 Cl      1  UNL1       -0.0814
      9 C          66.6878   92.0919   14.8054 C.3     1  UNL1        0.0348
     10 C          67.7989   91.8306   13.8322 C.3     1  UNL1        0.0726
     11 N          69.0560   92.4267   14.3929 N.3     1  UNL1       -0.2972
     12 C          68.7217   93.0565   15.7127 C.3     1  UNL1        0.0689
     13 C          67.2581   92.8496   15.9676 C.3     1  UNL1        0.0211
     14 C          65.8006   92.4955   15.9457 C.3     1  UNL1        0.0072
     15 H          69.4187   93.1340   13.7538 H       1  UNL1        0.1233
@<TRIPOS>BOND
     1     1     2    1
     2     2     3   ar
     3     3     4   ar
     4     4     5   ar
     5     5     9    1
     6     9    10    1
     7    10    11    1
     8    11    12    1
     9    12    13    1
    10    13    14    1
    11     5     6   ar
    12     6     7   ar
    13     7     8    1
    14     7     2   ar
    15    13     9    1
    16    14     9    1
    17    11    15    1
@<TRIPOS>MOLECULE
*****
 15 17 0 0 0
SMALL
GASTEIGER

@<TRIPOS>ATOM
      1 CL         63.0498   80.5947   10.3383 Cl      1  UNL1       -0.0814
      2 C          63.1766   81.5824   11.4601 C.ar    1  UNL1        0.0682
      3 C          62.9071   81.1528   12.8717 C.ar    1  UNL1        0.0119
      4 C          63.0339   82.1405   13.9935 C.ar    1  UNL1       -0.0033
      5 C          63.4301   83.5578   13.7036 C.ar    1  UNL1       -0.0206
      6 C          63.6995   83.9875   12.2920 C.ar    1  UNL1        0.0080
      7 C          63.5728   82.9998   11.1702 C.ar    1  UNL1        0.0679
      8 CL         63.8422   83.4295    9.7585 Cl      1  UNL1       -0.0814
      9 C          63.5568   84.5456   14.8254 C.3     1  UNL1        0.0348
     10 C          62.1646   84.3632   15.3530 C.3     1  UNL1        0.0726
     11 N          61.9947   85.2696   16.5360 N.3     1  UNL1       -0.2972
     12 C          63.2820   86.0122   16.7396 C.3     1  UNL1        0.0689
     13 C          64.2475   85.5647   15.6823 C.3     1  UNL1        0.0211
     14 C          64.9756   84.9344   14.5323 C.3     1  UNL1        0.0072
     15 H          61.7781   84.7181   17.3663 H       1  UNL1        0.1233
@<TRIPOS>BOND
     1     1     2    1
     2     2     3   ar
     3     3     4   ar
     4     4     5   ar
     5     5     9    1
     6     9    10    1
     7    10    11    1
     8    11    12    1
     9    12    13    1
    10    13    14    1
    11     5     6   ar
    12     6     7   ar
    13     7     8    1
    14     7     2   ar
    15    13     9    1
    16    14     9    1
    17    11    15    1
@<TRIPOS>MOLECULE
*****
 15 17 0 0 0
SMALL
GASTEIGER

@<TRIPOS>ATOM
      1 CL         64.4000   90.4585   14.9397 Cl      1  UNL1       -0.0814
      2 C          65.0327   91.1897   13.7929 C.ar    1  UNL1        0.0682
      3 C          64.2715   91.3825   12.5149 C.ar    1  UNL1        0.0119
      4 C          64.9042   92.1137   11.3681 C.ar    1  UNL1       -0.0033
      5 C          66.2980   92.6521   11.4994 C.ar    1  UNL1       -0.0206
      6 C          67.0592   92.4593   12.7775 C.ar    1  UNL1        0.0080
      7 C          66.4265   91.7281   13.9242 C.ar    1  UNL1        0.0679
      8 CL         67.1877   91.5353   15.2023 Cl      1  UNL1       -0.0814
      9 C          66.9307   93.3833   10.3527 C.3     1  UNL1        0.0348
     10 C          66.1972   94.6743   10.5661 C.3     1  UNL1        0.0726
     11 N          66.6489   95.6434    9.5141 N.3     1  UNL1       -0.2972
     12 C          67.6615   94.9514    8.6505 C.3     1  UNL1        0.0689
     13 C          67.8357   93.5546    9.1688 C.3     1  UNL1        0.0211
     14 C          67.7964   92.2453    9.8995 C.3     1  UNL1        0.0072
     15 H          67.0706   96.4610    9.9547 H       1  UNL1        0.1233
@<TRIPOS>BOND
     1     1     2    1
     2     2     3   ar
     3     3     4   ar
     4     4     5   ar
     5     5     9    1
     6     9    10    1
     7    10    11    1
     8    11    12    1
     9    12    13    1
    10    13    14    1
    11     5     6   ar
    12     6     7   ar
    13     7     8    1
    14     7     2   ar
    15    13     9    1
    16    14     9    1
    17    11    15    1
@<TRIPOS>MOLECULE
*****
 15 17 0 0 0
SMALL
GASTEIGER

@<TRIPOS>ATOM
      1 CL         62.9469   84.9102    7.5754 Cl      1  UNL1       -0.0814
      2 C          63.0096   84.7655    9.0671 C.ar    1  UNL1        0.0682
      3 C          63.8094   83.6543    9.6798 C.ar    1  UNL1        0.0119
      4 C          63.8721   83.5096   11.1715 C.ar    1  UNL1       -0.0033
      5 C          63.1350   84.4760   12.0504 C.ar    1  UNL1       -0.0206
      6 C          62.3351   85.5872   11.4377 C.ar    1  UNL1        0.0080
      7 C          62.2724   85.7319    9.9460 C.ar    1  UNL1        0.0679
      8 CL         61.4726   86.8432    9.3332 Cl      1  UNL1       -0.0814
      9 C          63.1976   84.3313   13.5421 C.3     1  UNL1        0.0348
     10 C          62.5259   82.9913   13.5980 C.3     1  UNL1        0.0726
     11 N          62.4453   82.5728   15.0362 N.3     1  UNL1       -0.2972
     12 C          63.0674   83.6542   15.8691 C.3     1  UNL1        0.0689
     13 C          63.5323   84.7410   14.9457 C.3     1  UNL1        0.0211
     14 C          63.8825   85.6411   13.7981 C.3     1  UNL1        0.0072
     15 H          62.9517   81.6976   15.1709 H       1  UNL1        0.1233
@<TRIPOS>BOND
     1     1     2    1
     2     2     3   ar
     3     3     4   ar
     4     4     5   ar
     5     5     9    1
     6     9    10    1
     7    10    11    1
     8    11    12    1
     9    12    13    1
    10    13    14    1
    11     5     6   ar
    12     6     7   ar
    13     7     8    1
    14     7     2   ar
    15    13     9    1
    16    14     9    1
    17    11    15    1
@<TRIPOS>MOLECULE
*****
 15 17 0 0 0
SMALL
GASTEIGER

@<TRIPOS>ATOM
      1 CL         63.6522   90.2490   14.4155 Cl      1  UNL1       -0.0814
      2 C          64.4390   91.0361   13.4098 C.ar    1  UNL1        0.0682
      3 C          65.7556   91.6423   13.7958 C.ar    1  UNL1        0.0119
      4 C          66.5424   92.4295   12.7901 C.ar    1  UNL1       -0.0033
      5 C          66.0126   92.6104   11.3986 C.ar    1  UNL1       -0.0206
      6 C          64.6960   92.0042   11.0126 C.ar    1  UNL1        0.0080
      7 C          63.9092   91.2170   12.0182 C.ar    1  UNL1        0.0679
      8 CL         62.5925   90.6108   11.6322 Cl      1  UNL1       -0.0814
      9 C          66.7995   93.3975   10.3929 C.3     1  UNL1        0.0348
     10 C          66.0447   94.6812   10.5732 C.3     1  UNL1        0.0726
     11 N          66.6393   95.7023    9.6493 N.3     1  UNL1       -0.2972
     12 C          67.7616   95.0497    8.8979 C.3     1  UNL1        0.0689
     13 C          67.8606   93.6253    9.3575 C.3     1  UNL1        0.0211
     14 C          67.7188   92.2784   10.0023 C.3     1  UNL1        0.0072
     15 H          66.9963   96.4910   10.1887 H       1  UNL1        0.1233
@<TRIPOS>BOND
     1     1     2    1
     2     2     3   ar
     3     3     4   ar
     4     4     5   ar
     5     5     9    1
     6     9    10    1
     7    10    11    1
     8    11    12    1
     9    12    13    1
    10    13    14    1
    11     5     6   ar
    12     6     7   ar
    13     7     8    1
    14     7     2   ar
    15    13     9    1
    16    14     9    1
    17    11    15    1
@<TRIPOS>MOLECULE
*****
 15 17 0 0 0
SMALL
GASTEIGER

@<TRIPOS>ATOM
      1 CL         63.1111   81.0530   10.5715 Cl      1  UNL1       -0.0814
      2 C          63.1815   82.0249   11.7119 C.ar    1  UNL1        0.0682
      3 C          63.5578   83.4543   11.4569 C.ar    1  UNL1        0.0119
      4 C          63.6282   84.4263   12.5972 C.ar    1  UNL1       -0.0033
      5 C          63.3223   83.9688   13.9926 C.ar    1  UNL1       -0.0206
      6 C          62.9461   82.5393   14.2476 C.ar    1  UNL1        0.0080
      7 C          62.8757   81.5674   13.1072 C.ar    1  UNL1        0.0679
      8 CL         62.4994   80.1379   13.3623 Cl      1  UNL1       -0.0814
      9 C          63.3928   84.9407   15.1329 C.3     1  UNL1        0.0348
     10 C          62.0122   84.6712   15.6541 C.3     1  UNL1        0.0726
     11 N          61.7909   85.5443   16.8536 N.3     1  UNL1       -0.2972
     12 C          63.0347   86.3534   17.0737 C.3     1  UNL1        0.0689
     13 C          64.0247   85.9803   16.0103 C.3     1  UNL1        0.0211
     14 C          64.7880   85.4133   14.8502 C.3     1  UNL1        0.0072
     15 H          61.6046   84.9661   17.6729 H       1  UNL1        0.1233
@<TRIPOS>BOND
     1     1     2    1
     2     2     3   ar
     3     3     4   ar
     4     4     5   ar
     5     5     9    1
     6     9    10    1
     7    10    11    1
     8    11    12    1
     9    12    13    1
    10    13    14    1
    11     5     6   ar
    12     6     7   ar
    13     7     8    1
    14     7     2   ar
    15    13     9    1
    16    14     9    1
    17    11    15    1
@<TRIPOS>MOLECULE
*****
 15 17 0 0 0
SMALL
GASTEIGER

@<TRIPOS>ATOM
      1 CL         62.9294   79.7415   10.1876 Cl      1  UNL1       -0.0814
      2 C          63.1643   80.9997   10.9697 C.ar    1  UNL1        0.0682
      3 C          63.7652   82.1989   10.2984 C.ar    1  UNL1        0.0119
      4 C          64.0001   83.4572   11.0805 C.ar    1  UNL1       -0.0033
      5 C          63.6342   83.5161   12.5340 C.ar    1  UNL1       -0.0206
      6 C          63.0334   82.3168   13.2053 C.ar    1  UNL1        0.0080
      7 C          62.7985   81.0586   12.4232 C.ar    1  UNL1        0.0679
      8 CL         62.1976   79.8593   13.0946 Cl      1  UNL1       -0.0814
      9 C          63.8691   84.7743   13.3161 C.3     1  UNL1        0.0348
     10 C          64.8408   84.1750   14.2891 C.3     1  UNL1        0.0726
     11 N          65.2686   85.2529   15.2405 N.3     1  UNL1       -0.2972
     12 C          64.5613   86.5184   14.8554 C.3     1  UNL1        0.0689
     13 C          63.6964   86.2226   13.6661 C.3     1  UNL1        0.0211
     14 C          62.9466   85.6367   12.5066 C.3     1  UNL1        0.0072
     15 H          66.2778   85.3880   15.1794 H       1  UNL1        0.1233
@<TRIPOS>BOND
     1     1     2    1
     2     2     3   ar
     3     3     4   ar
     4     4     5   ar
     5     5     9    1
     6     9    10    1
     7    10    11    1
     8    11    12    1
     9    12    13    1
    10    13    14    1
    11     5     6   ar
    12     6     7   ar
    13     7     8    1
    14     7     2   ar
    15    13     9    1
    16    14     9    1
    17    11    15    1
@<TRIPOS>MOLECULE
*****
 15 17 0 0 0
SMALL
GASTEIGER

@<TRIPOS>ATOM
      1 CL         62.9896   84.9131    7.6449 Cl      1  UNL1       -0.0814
      2 C          63.0234   84.7486    9.1354 C.ar    1  UNL1        0.0682
      3 C          63.8100   83.6283    9.7487 C.ar    1  UNL1        0.0119
      4 C          63.8438   83.4639   11.2393 C.ar    1  UNL1       -0.0033
      5 C          63.0911   84.4197   12.1166 C.ar    1  UNL1       -0.0206
      6 C          62.3045   85.5400   11.5033 C.ar    1  UNL1        0.0080
      7 C          62.2707   85.7044   10.0127 C.ar    1  UNL1        0.0679
      8 CL         61.4840   86.8248    9.3995 Cl      1  UNL1       -0.0814
      9 C          63.1249   84.2552   13.6072 C.3     1  UNL1        0.0348
     10 C          63.8738   85.5242   13.8880 C.3     1  UNL1        0.0726
     11 N          64.0627   85.6322   15.3721 N.3     1  UNL1       -0.2972
     12 C          63.4306   84.4300   16.0085 C.3     1  UNL1        0.0689
     13 C          62.8510   83.5789   14.9177 C.3     1  UNL1        0.0211
     14 C          62.3831   82.9518   13.6380 C.3     1  UNL1        0.0072
     15 H          63.6157   86.4817   15.7170 H       1  UNL1        0.1233
@<TRIPOS>BOND
     1     1     2    1
     2     2     3   ar
     3     3     4   ar
     4     4     5   ar
     5     5     9    1
     6     9    10    1
     7    10    11    1
     8    11    12    1
     9    12    13    1
    10    13    14    1
    11     5     6   ar
    12     6     7   ar
    13     7     8    1
    14     7     2   ar
    15    13     9    1
    16    14     9    1
    17    11    15    1
