@<TRIPOS>MOLECULE
*****
 32 36 0 0 0
SMALL
GASTEIGER

@<TRIPOS>ATOM
      1 C          64.7943   91.8900   12.7096 C.3     1  UNL1        0.0719
      2 C          65.7885   91.4243   13.7317 C.3     1  UNL1        0.0197
      3 C          65.5025   90.2027   14.5538 C.3     1  UNL1        0.0041
      4 C          64.2224   89.4468   14.3538 C.3     1  UNL1        0.0271
      5 C          63.2283   89.9124   13.3316 C.3     1  UNL1        0.0041
      6 C          63.5143   91.1341   12.5095 C.3     1  UNL1        0.0197
      7 O          67.1401   91.9246   10.8397 O.2     1  UNL1       -0.2701
      8 C          66.2531   93.1290   10.9525 C.2     1  UNL1        0.2458
      9 N          65.0802   93.1116   11.8874 N.am    1  UNL1       -0.3025
     10 H          64.4980   93.9021   11.9614 H       1  UNL1        0.1497
     11 C          66.5389   94.3506   10.1304 C.ar    1  UNL1        0.0534
     12 C          65.8180   95.6340   10.4187 C.ar    1  UNL1        0.0045
     13 C          66.1038   96.8558    9.5966 C.ar    1  UNL1        0.0001
     14 C          67.1104   96.7940    8.4863 C.ar    1  UNL1        0.0000
     15 C          67.8313   95.5105    8.1979 C.ar    1  UNL1        0.0001
     16 C          67.5455   94.2888    9.0201 C.ar    1  UNL1        0.0045
     17 C          63.9365   88.2252   15.1759 C.3     1  UNL1        0.1127
     18 O          63.0004   88.3101   16.3449 O.3     1  UNL1       -0.3844
     19 H          62.9268   87.4384   16.7641 H       1  UNL1        0.2103
     20 C          64.5866   86.9186   14.8289 C.3     1  UNL1        0.0564
     21 C          63.8735   85.9369   13.9470 C.3     1  UNL1        0.1119
     22 C          63.1811   86.2538   12.6546 C.ar    1  UNL1       -0.0002
     23 C          62.9990   87.5386   11.9023 C.ar    1  UNL1       -0.0024
     24 C          62.2431   87.5484   10.6067 C.ar    1  UNL1       -0.0003
     25 C          61.6693   86.2733   10.0635 C.ar    1  UNL1        0.0000
     26 C          61.8514   84.9885   10.8159 C.ar    1  UNL1        0.0012
     27 C          62.6073   84.9788   12.1114 C.ar    1  UNL1        0.0152
     28 C          62.9451   83.8739   13.0681 C.ar    1  UNL1        0.0804
     29 C          62.7992   82.4030   13.3236 C.ar    1  UNL1        0.1177
     30 N          63.4916   82.0862   14.6160 N.ar    1  UNL1       -0.2223
     31 C          64.0654   83.3612   15.1592 C.ar    1  UNL1        0.1788
     32 N          63.7276   84.4660   14.2025 N.ar    1  UNL1       -0.3069
@<TRIPOS>BOND
     1     7     8    2
     2     8     9   am
     3     1     9    1
     4     1     2    1
     5     2     3    1
     6     3     4    1
     7     4    17    1
     8    17    18    1
     9    17    20    1
    10    20    21    1
    11    21    22    1
    12    22    23   ar
    13    23    24   ar
    14    24    25   ar
    15    25    26   ar
    16    26    27   ar
    17    27    28    1
    18    28    29   ar
    19    29    30   ar
    20    30    31   ar
    21    31    32   ar
    22     4     5    1
    23     5     6    1
    24     8    11    1
    25    11    12   ar
    26    12    13   ar
    27    13    14   ar
    28    14    15   ar
    29    15    16   ar
    30     6     1    1
    31    16    11   ar
    32    32    21    1
    33    27    22   ar
    34    32    28   ar
    35     9    10    1
    36    18    19    1
@<TRIPOS>MOLECULE
*****
 32 36 0 0 0
SMALL
GASTEIGER

@<TRIPOS>ATOM
      1 C          63.6304   86.2711   15.4588 C.3     1  UNL1        0.0719
      2 C          62.9586   87.0436   16.5550 C.3     1  UNL1        0.0197
      3 C          63.1355   88.5306   16.6416 C.3     1  UNL1        0.0041
      4 C          63.9841   89.2450   15.6320 C.3     1  UNL1        0.0271
      5 C          64.6559   88.4725   14.5358 C.3     1  UNL1        0.0041
      6 C          64.4791   86.9855   14.4491 C.3     1  UNL1        0.0197
      7 O          62.3804   85.0485   13.0209 O.2     1  UNL1       -0.2701
      8 C          62.8287   84.1728   14.1532 C.2     1  UNL1        0.2458
      9 N          63.4536   84.7840   15.3721 N.am    1  UNL1       -0.3025
     10 H          63.7478   84.2092   16.1152 H       1  UNL1        0.1497
     11 C          62.6519   82.6857   14.0666 C.ar    1  UNL1        0.0534
     12 C          61.2968   82.0781   14.2771 C.ar    1  UNL1        0.0045
     13 C          61.1199   80.5910   14.1905 C.ar    1  UNL1        0.0001
     14 C          62.2983   79.7117   13.8934 C.ar    1  UNL1        0.0000
     15 C          63.6535   80.3194   13.6829 C.ar    1  UNL1        0.0001
     16 C          63.8302   81.8064   13.7695 C.ar    1  UNL1        0.0045
     17 C          64.1610   90.7321   15.7186 C.3     1  UNL1        0.1127
     18 O          63.2684   91.5428   16.6108 O.3     1  UNL1       -0.3844
     19 H          63.5147   92.4790   16.5500 H       1  UNL1        0.2103
     20 C          65.2305   91.4084   14.9130 C.3     1  UNL1        0.0564
     21 C          64.9734   91.7724   13.4808 C.3     1  UNL1        0.1119
     22 C          63.9939   91.1027   12.5631 C.ar    1  UNL1       -0.0002
     23 C          63.0459   89.9587   12.7692 C.ar    1  UNL1       -0.0024
     24 C          62.1698   89.4984   11.6420 C.ar    1  UNL1       -0.0003
     25 C          62.2416   90.1820   10.3088 C.ar    1  UNL1        0.0000
     26 C          63.1897   91.3260   10.1027 C.ar    1  UNL1        0.0012
     27 C          64.0658   91.7863   11.2298 C.ar    1  UNL1        0.0152
     28 C          65.0897   92.8785   11.3236 C.ar    1  UNL1        0.0804
     29 C          65.7670   93.9761   10.5575 C.ar    1  UNL1        0.1177
     30 N          66.7464   94.6457   11.4753 N.ar    1  UNL1       -0.2223
     31 C          66.6746   93.9621   12.8085 C.ar    1  UNL1        0.1788
     32 N          65.6507   92.8699   12.7148 N.ar    1  UNL1       -0.3069
@<TRIPOS>BOND
     1     7     8    2
     2     8     9   am
     3     1     9    1
     4     1     2    1
     5     2     3    1
     6     3     4    1
     7     4    17    1
     8    17    18    1
     9    17    20    1
    10    20    21    1
    11    21    22    1
    12    22    23   ar
    13    23    24   ar
    14    24    25   ar
    15    25    26   ar
    16    26    27   ar
    17    27    28    1
    18    28    29   ar
    19    29    30   ar
    20    30    31   ar
    21    31    32   ar
    22     4     5    1
    23     5     6    1
    24     8    11    1
    25    11    12   ar
    26    12    13   ar
    27    13    14   ar
    28    14    15   ar
    29    15    16   ar
    30     6     1    1
    31    16    11   ar
    32    32    21    1
    33    27    22   ar
    34    32    28   ar
    35     9    10    1
    36    18    19    1
@<TRIPOS>MOLECULE
*****
 32 36 0 0 0
SMALL
GASTEIGER

@<TRIPOS>ATOM
      1 C          63.5867   86.2594   15.1799 C.3     1  UNL1        0.0719
      2 C          63.0486   86.7978   16.4724 C.3     1  UNL1        0.0197
      3 C          63.1412   88.2650   16.7701 C.3     1  UNL1        0.0041
      4 C          63.7719   89.1938   15.7754 C.3     1  UNL1        0.0271
      5 C          64.3100   88.6555   14.4829 C.3     1  UNL1        0.0041
      6 C          64.2174   87.1882   14.1852 C.3     1  UNL1        0.0197
      7 O          62.0933   85.3118   12.7567 O.2     1  UNL1       -0.2701
      8 C          62.7475   84.3184   13.6705 C.2     1  UNL1        0.2458
      9 N          63.4942   84.7922   14.8821 N.am    1  UNL1       -0.3025
     10 H          63.9236   84.1401   15.4819 H       1  UNL1        0.1497
     11 C          62.6550   82.8511   13.3728 C.ar    1  UNL1        0.0534
     12 C          63.1814   82.3147   12.0747 C.ar    1  UNL1        0.0045
     13 C          63.0890   80.8474   11.7769 C.ar    1  UNL1        0.0001
     14 C          62.4700   79.9167   12.7772 C.ar    1  UNL1        0.0000
     15 C          61.9436   80.4531   14.0754 C.ar    1  UNL1        0.0001
     16 C          62.0361   81.9204   14.3731 C.ar    1  UNL1        0.0045
     17 C          63.8645   90.6611   16.0731 C.3     1  UNL1        0.1127
     18 O          63.8638   91.1394   17.4948 O.3     1  UNL1       -0.3844
     19 H          63.9291   92.1071   17.5104 H       1  UNL1        0.2103
     20 C          63.9579   91.6500   14.9491 C.3     1  UNL1        0.0564
     21 C          65.2896   91.9619   14.3332 C.3     1  UNL1        0.1119
     22 C          65.5698   92.1105   12.8671 C.ar    1  UNL1       -0.0002
     23 C          64.6854   92.0035   11.6603 C.ar    1  UNL1       -0.0024
     24 C          65.2595   92.2065   10.2895 C.ar    1  UNL1       -0.0003
     25 C          66.7179   92.5165   10.1254 C.ar    1  UNL1        0.0000
     26 C          67.6023   92.6234   11.3322 C.ar    1  UNL1        0.0012
     27 C          67.0283   92.4204   12.7031 C.ar    1  UNL1        0.0152
     28 C          67.6493   92.4634   14.0678 C.ar    1  UNL1        0.0804
     29 C          68.9346   92.6815   14.8098 C.ar    1  UNL1        0.1177
     30 N          68.6543   92.5330   16.2759 N.ar    1  UNL1       -0.2223
     31 C          67.1959   92.2230   16.4400 C.ar    1  UNL1        0.1788
     32 N          66.5748   92.1800   15.0753 N.ar    1  UNL1       -0.3069
@<TRIPOS>BOND
     1     7     8    2
     2     8     9   am
     3     1     9    1
     4     1     2    1
     5     2     3    1
     6     3     4    1
     7     4    17    1
     8    17    18    1
     9    17    20    1
    10    20    21    1
    11    21    22    1
    12    22    23   ar
    13    23    24   ar
    14    24    25   ar
    15    25    26   ar
    16    26    27   ar
    17    27    28    1
    18    28    29   ar
    19    29    30   ar
    20    30    31   ar
    21    31    32   ar
    22     4     5    1
    23     5     6    1
    24     8    11    1
    25    11    12   ar
    26    12    13   ar
    27    13    14   ar
    28    14    15   ar
    29    15    16   ar
    30     6     1    1
    31    16    11   ar
    32    32    21    1
    33    27    22   ar
    34    32    28   ar
    35     9    10    1
    36    18    19    1
@<TRIPOS>MOLECULE
*****
 32 36 0 0 0
SMALL
GASTEIGER

@<TRIPOS>ATOM
      1 C          65.1800   91.7766   13.2069 C.3     1  UNL1        0.0719
      2 C          63.8193   91.2183   12.9124 C.3     1  UNL1        0.0197
      3 C          63.3614   89.9614   13.5910 C.3     1  UNL1        0.0041
      4 C          64.2643   89.2629   14.5641 C.3     1  UNL1        0.0271
      5 C          65.6250   89.8211   14.8586 C.3     1  UNL1        0.0041
      6 C          66.0829   91.0780   14.1799 C.3     1  UNL1        0.0197
      7 O          65.8687   91.7397   10.2871 O.2     1  UNL1       -0.2701
      8 C          65.9823   93.0151   11.0685 C.2     1  UNL1        0.2458
      9 N          65.6380   93.0335   12.5283 N.am    1  UNL1       -0.3025
     10 H          65.7126   93.8706   13.0411 H       1  UNL1        0.1497
     11 C          66.4403   94.2720   10.3900 C.ar    1  UNL1        0.0534
     12 C          67.0812   94.2024    9.0356 C.ar    1  UNL1        0.0045
     13 C          67.5392   95.4593    8.3570 C.ar    1  UNL1        0.0001
     14 C          67.3562   96.7858    9.0329 C.ar    1  UNL1        0.0000
     15 C          66.7153   96.8555   10.3873 C.ar    1  UNL1        0.0001
     16 C          66.2573   95.5986   11.0658 C.ar    1  UNL1        0.0045
     17 C          63.8064   88.0059   15.2427 C.3     1  UNL1        0.1127
     18 O          62.7876   88.0752   16.3414 O.3     1  UNL1       -0.3844
     19 H          62.6043   87.1809   16.6693 H       1  UNL1        0.2103
     20 C          64.3674   86.6797   14.8226 C.3     1  UNL1        0.0564
     21 C          63.6884   85.8850   13.7468 C.3     1  UNL1        0.1119
     22 C          63.5061   84.3961   13.7323 C.ar    1  UNL1       -0.0002
     23 C          63.9094   83.3261   14.7031 C.ar    1  UNL1       -0.0024
     24 C          63.5841   81.8906   14.4146 C.ar    1  UNL1       -0.0003
     25 C          62.8555   81.5250   13.1554 C.ar    1  UNL1        0.0000
     26 C          62.4523   82.5950   12.1847 C.ar    1  UNL1        0.0012
     27 C          62.7775   84.0306   12.4731 C.ar    1  UNL1        0.0152
     28 C          62.5096   85.2935   11.7094 C.ar    1  UNL1        0.0804
     29 C          61.8937   85.8481   10.4591 C.ar    1  UNL1        0.1177
     30 N          62.0760   87.3369   10.4736 N.ar    1  UNL1       -0.2223
     31 C          62.8046   87.7025   11.7328 C.ar    1  UNL1        0.1788
     32 N          63.0725   86.4396   12.4965 N.ar    1  UNL1       -0.3069
@<TRIPOS>BOND
     1     7     8    2
     2     8     9   am
     3     1     9    1
     4     1     2    1
     5     2     3    1
     6     3     4    1
     7     4    17    1
     8    17    18    1
     9    17    20    1
    10    20    21    1
    11    21    22    1
    12    22    23   ar
    13    23    24   ar
    14    24    25   ar
    15    25    26   ar
    16    26    27   ar
    17    27    28    1
    18    28    29   ar
    19    29    30   ar
    20    30    31   ar
    21    31    32   ar
    22     4     5    1
    23     5     6    1
    24     8    11    1
    25    11    12   ar
    26    12    13   ar
    27    13    14   ar
    28    14    15   ar
    29    15    16   ar
    30     6     1    1
    31    16    11   ar
    32    32    21    1
    33    27    22   ar
    34    32    28   ar
    35     9    10    1
    36    18    19    1
@<TRIPOS>MOLECULE
*****
 32 36 0 0 0
SMALL
GASTEIGER

@<TRIPOS>ATOM
      1 C          63.5980   86.3633   15.0757 C.3     1  UNL1        0.0719
      2 C          63.1151   86.9313   16.3772 C.3     1  UNL1        0.0197
      3 C          63.2067   88.4067   16.6315 C.3     1  UNL1        0.0041
      4 C          63.7812   89.3141   15.5843 C.3     1  UNL1        0.0271
      5 C          64.2642   88.7460   14.2828 C.3     1  UNL1        0.0041
      6 C          64.1726   87.2706   14.0285 C.3     1  UNL1        0.0197
      7 O          62.0883   85.3427   12.6925 O.2     1  UNL1       -0.2701
      8 C          62.7516   84.3775   13.6297 C.2     1  UNL1        0.2458
      9 N          63.5065   84.8878   14.8213 N.am    1  UNL1       -0.3025
     10 H          63.9419   84.2543   15.4364 H       1  UNL1        0.1497
     11 C          62.6601   82.9021   13.3754 C.ar    1  UNL1        0.0534
     12 C          62.0449   82.0005   14.4043 C.ar    1  UNL1        0.0045
     13 C          61.9533   80.5250   14.1500 C.ar    1  UNL1        0.0001
     14 C          62.4771   79.9512   12.8669 C.ar    1  UNL1        0.0000
     15 C          63.0923   80.8528   11.8380 C.ar    1  UNL1        0.0001
     16 C          63.1838   82.3283   12.0923 C.ar    1  UNL1        0.0045
     17 C          63.8728   90.7895   15.8386 C.3     1  UNL1        0.1127
     18 O          63.8842   91.3087   17.2458 O.3     1  UNL1       -0.3844
     19 H          63.9471   92.2766   17.2329 H       1  UNL1        0.2103
     20 C          63.9530   91.7458   14.6856 C.3     1  UNL1        0.0564
     21 C          65.2708   92.0077   14.0188 C.3     1  UNL1        0.1119
     22 C          66.5906   92.1785   14.7109 C.ar    1  UNL1       -0.0002
     23 C          66.9758   92.1445   16.1601 C.ar    1  UNL1       -0.0024
     24 C          68.4060   92.3531   16.5611 C.ar    1  UNL1       -0.0003
     25 C          69.4511   92.5957   15.5129 C.ar    1  UNL1        0.0000
     26 C          69.0660   92.6298   14.0636 C.ar    1  UNL1        0.0012
     27 C          67.6357   92.4212   13.6626 C.ar    1  UNL1        0.0152
     28 C          66.9618   92.4003   12.3226 C.ar    1  UNL1        0.0804
     29 C          67.1913   92.5373   10.8466 C.ar    1  UNL1        0.1177
     30 N          65.8714   92.3665   10.1545 N.ar    1  UNL1       -0.2223
     31 C          64.8263   92.1238   11.2028 C.ar    1  UNL1        0.1788
     32 N          65.5002   92.1447   12.5428 N.ar    1  UNL1       -0.3069
@<TRIPOS>BOND
     1     7     8    2
     2     8     9   am
     3     1     9    1
     4     1     2    1
     5     2     3    1
     6     3     4    1
     7     4    17    1
     8    17    18    1
     9    17    20    1
    10    20    21    1
    11    21    22    1
    12    22    23   ar
    13    23    24   ar
    14    24    25   ar
    15    25    26   ar
    16    26    27   ar
    17    27    28    1
    18    28    29   ar
    19    29    30   ar
    20    30    31   ar
    21    31    32   ar
    22     4     5    1
    23     5     6    1
    24     8    11    1
    25    11    12   ar
    26    12    13   ar
    27    13    14   ar
    28    14    15   ar
    29    15    16   ar
    30     6     1    1
    31    16    11   ar
    32    32    21    1
    33    27    22   ar
    34    32    28   ar
    35     9    10    1
    36    18    19    1
@<TRIPOS>MOLECULE
*****
 32 36 0 0 0
SMALL
GASTEIGER

@<TRIPOS>ATOM
      1 C          63.5780   86.1644   15.5052 C.3     1  UNL1        0.0719
      2 C          62.9070   86.9029   16.6250 C.3     1  UNL1        0.0197
      3 C          63.0528   88.3918   16.7350 C.3     1  UNL1        0.0041
      4 C          63.8696   89.1420   15.7251 C.3     1  UNL1        0.0271
      5 C          64.5407   88.4034   14.6052 C.3     1  UNL1        0.0041
      6 C          64.3949   86.9146   14.4953 C.3     1  UNL1        0.0197
      7 O          62.2481   84.9609   13.1003 O.2     1  UNL1       -0.2701
      8 C          62.7673   84.0738   14.1928 C.2     1  UNL1        0.2458
      9 N          63.4323   84.6755   15.3951 N.am    1  UNL1       -0.3025
     10 H          63.7730   84.0933   16.1121 H       1  UNL1        0.1497
     11 C          62.6216   82.5849   14.0828 C.ar    1  UNL1        0.0534
     12 C          63.8258   81.7312   13.8162 C.ar    1  UNL1        0.0045
     13 C          63.6802   80.2423   13.7063 C.ar    1  UNL1        0.0001
     14 C          62.3303   79.6072   13.8629 C.ar    1  UNL1        0.0000
     15 C          61.1260   80.4610   14.1295 C.ar    1  UNL1        0.0001
     16 C          61.2718   81.9498   14.2395 C.ar    1  UNL1        0.0045
     17 C          64.0155   90.6308   15.8350 C.3     1  UNL1        0.1127
     18 O          63.1961   91.3930   16.8339 O.3     1  UNL1       -0.3844
     19 H          63.4105   92.3371   16.7750 H       1  UNL1        0.2103
     20 C          64.9807   91.3576   14.9460 C.3     1  UNL1        0.0564
     21 C          64.6482   91.5787   13.5001 C.3     1  UNL1        0.1119
     22 C          65.3290   92.5449   12.5766 C.ar    1  UNL1       -0.0002
     23 C          66.4576   93.5101   12.7882 C.ar    1  UNL1       -0.0024
     24 C          66.9352   94.3660   11.6528 C.ar    1  UNL1       -0.0003
     25 C          66.2842   94.2568   10.3059 C.ar    1  UNL1        0.0000
     26 C          65.1557   93.2917   10.0943 C.ar    1  UNL1        0.0012
     27 C          64.6781   92.4358   11.2297 C.ar    1  UNL1        0.0152
     28 C          63.5950   91.4020   11.3207 C.ar    1  UNL1        0.0804
     29 C          62.5232   90.6957   10.5445 C.ar    1  UNL1        0.1177
     30 N          61.8424   89.7294   11.4680 N.ar    1  UNL1       -0.2223
     31 C          62.4934   89.8386   12.8150 C.ar    1  UNL1        0.1788
     32 N          63.5765   90.8723   12.7240 N.ar    1  UNL1       -0.3069
@<TRIPOS>BOND
     1     7     8    2
     2     8     9   am
     3     1     9    1
     4     1     2    1
     5     2     3    1
     6     3     4    1
     7     4    17    1
     8    17    18    1
     9    17    20    1
    10    20    21    1
    11    21    22    1
    12    22    23   ar
    13    23    24   ar
    14    24    25   ar
    15    25    26   ar
    16    26    27   ar
    17    27    28    1
    18    28    29   ar
    19    29    30   ar
    20    30    31   ar
    21    31    32   ar
    22     4     5    1
    23     5     6    1
    24     8    11    1
    25    11    12   ar
    26    12    13   ar
    27    13    14   ar
    28    14    15   ar
    29    15    16   ar
    30     6     1    1
    31    16    11   ar
    32    32    21    1
    33    27    22   ar
    34    32    28   ar
    35     9    10    1
    36    18    19    1
@<TRIPOS>MOLECULE
*****
 32 36 0 0 0
SMALL
GASTEIGER

@<TRIPOS>ATOM
      1 C          63.0245   87.9511   12.4322 C.3     1  UNL1        0.0719
      2 C          63.9011   87.5332   13.5754 C.3     1  UNL1        0.0197
      3 C          64.1693   88.4864   14.7021 C.3     1  UNL1        0.0041
      4 C          63.5609   89.8574   14.6856 C.3     1  UNL1        0.0271
      5 C          62.6842   90.2752   13.5425 C.3     1  UNL1        0.0041
      6 C          62.4160   89.3221   12.4157 C.3     1  UNL1        0.0197
      7 O          61.8600   88.9607    9.8583 O.2     1  UNL1       -0.2701
      8 C          62.1740   87.5027   10.0185 C.2     1  UNL1        0.2458
      9 N          62.7562   86.9980   11.3054 N.am    1  UNL1       -0.3025
     10 H          62.9622   86.0410   11.4106 H       1  UNL1        0.1497
     11 C          61.9057   86.5495    8.8918 C.ar    1  UNL1        0.0534
     12 C          60.5352   86.4693    8.2876 C.ar    1  UNL1        0.0045
     13 C          60.2669   85.5161    7.1609 C.ar    1  UNL1        0.0001
     14 C          61.3692   84.6432    6.6384 C.ar    1  UNL1        0.0000
     15 C          62.7398   84.7235    7.2426 C.ar    1  UNL1        0.0001
     16 C          63.0081   85.6767    8.3693 C.ar    1  UNL1        0.0045
     17 C          63.8291   90.8106   15.8123 C.3     1  UNL1        0.1127
     18 O          63.4908   90.4211   17.2208 O.3     1  UNL1       -0.3844
     19 H          63.7258   91.1453   17.8218 H       1  UNL1        0.2103
     20 C          64.4357   92.1533   15.5305 C.3     1  UNL1        0.0564
     21 C          65.6914   92.2530   14.7162 C.3     1  UNL1        0.1119
     22 C          65.7700   92.3000   13.2190 C.ar    1  UNL1       -0.0002
     23 C          64.7114   92.2651   12.1569 C.ar    1  UNL1       -0.0024
     24 C          65.0991   92.3296   10.7093 C.ar    1  UNL1       -0.0003
     25 C          66.5454   92.4289   10.3239 C.ar    1  UNL1        0.0000
     26 C          67.6039   92.4637   11.3861 C.ar    1  UNL1        0.0012
     27 C          67.2162   92.3992   12.8336 C.ar    1  UNL1        0.0152
     28 C          68.0315   92.4136   14.0927 C.ar    1  UNL1        0.0804
     29 C          69.4292   92.4839   14.6326 C.ar    1  UNL1        0.1177
     30 N          69.3506   92.4369   16.1298 N.ar    1  UNL1       -0.2223
     31 C          67.9044   92.3377   16.5152 C.ar    1  UNL1        0.1788
     32 N          67.0891   92.3233   15.2562 N.ar    1  UNL1       -0.3069
@<TRIPOS>BOND
     1     7     8    2
     2     8     9   am
     3     1     9    1
     4     1     2    1
     5     2     3    1
     6     3     4    1
     7     4    17    1
     8    17    18    1
     9    17    20    1
    10    20    21    1
    11    21    22    1
    12    22    23   ar
    13    23    24   ar
    14    24    25   ar
    15    25    26   ar
    16    26    27   ar
    17    27    28    1
    18    28    29   ar
    19    29    30   ar
    20    30    31   ar
    21    31    32   ar
    22     4     5    1
    23     5     6    1
    24     8    11    1
    25    11    12   ar
    26    12    13   ar
    27    13    14   ar
    28    14    15   ar
    29    15    16   ar
    30     6     1    1
    31    16    11   ar
    32    32    21    1
    33    27    22   ar
    34    32    28   ar
    35     9    10    1
    36    18    19    1
@<TRIPOS>MOLECULE
*****
 32 36 0 0 0
SMALL
GASTEIGER

@<TRIPOS>ATOM
      1 C          64.6044   91.2062   12.5357 C.3     1  UNL1        0.0719
      2 C          63.6509   90.3101   11.8023 C.3     1  UNL1        0.0197
      3 C          63.3323   88.9489   12.3460 C.3     1  UNL1        0.0041
      4 C          63.9672   88.4838   13.6229 C.3     1  UNL1        0.0271
      5 C          64.9207   89.3799   14.3563 C.3     1  UNL1        0.0041
      6 C          65.2393   90.7412   13.8126 C.3     1  UNL1        0.0197
      7 O          67.0431   91.6096   10.8356 O.2     1  UNL1       -0.2701
      8 C          66.1423   92.7692   11.1420 C.2     1  UNL1        0.2458
      9 N          64.9230   92.5675   11.9920 N.am    1  UNL1       -0.3025
     10 H          64.3318   93.3286   12.1932 H       1  UNL1        0.1497
     11 C          66.4609   94.1305   10.5985 C.ar    1  UNL1        0.0534
     12 C          66.0438   95.3565   11.3552 C.ar    1  UNL1        0.0045
     13 C          66.3623   96.7179   10.8117 C.ar    1  UNL1        0.0001
     14 C          67.0979   96.8530    9.5115 C.ar    1  UNL1        0.0000
     15 C          67.5150   95.6269    8.7547 C.ar    1  UNL1        0.0001
     16 C          67.1965   94.2656    9.2982 C.ar    1  UNL1        0.0045
     17 C          63.6486   87.1226   14.1666 C.3     1  UNL1        0.1127
     18 O          64.4298   86.5758   15.3245 O.3     1  UNL1       -0.3844
     19 H          64.0989   85.6921   15.5493 H       1  UNL1        0.2103
     20 C          62.5488   86.3081   13.5523 C.3     1  UNL1        0.0564
     21 C          62.8013   85.5379   12.2902 C.3     1  UNL1        0.1119
     22 C          62.2957   85.8944   10.9237 C.ar    1  UNL1       -0.0002
     23 C          61.4527   87.0330   10.4309 C.ar    1  UNL1       -0.0024
     24 C          61.0995   87.1299    8.9763 C.ar    1  UNL1       -0.0003
     25 C          61.5893   86.0882    8.0146 C.ar    1  UNL1        0.0000
     26 C          62.4323   84.9496    8.5074 C.ar    1  UNL1        0.0012
     27 C          62.7855   84.8527    9.9619 C.ar    1  UNL1        0.0152
     28 C          63.5937   83.8524   10.7341 C.ar    1  UNL1        0.0804
     29 C          64.3960   82.5903   10.6168 C.ar    1  UNL1        0.1177
     30 N          64.9015   82.2338   11.9834 N.ar    1  UNL1       -0.2223
     31 C          64.4117   83.2755   12.9452 C.ar    1  UNL1        0.1788
     32 N          63.6035   84.2758   12.1730 N.ar    1  UNL1       -0.3069
@<TRIPOS>BOND
     1     7     8    2
     2     8     9   am
     3     1     9    1
     4     1     2    1
     5     2     3    1
     6     3     4    1
     7     4    17    1
     8    17    18    1
     9    17    20    1
    10    20    21    1
    11    21    22    1
    12    22    23   ar
    13    23    24   ar
    14    24    25   ar
    15    25    26   ar
    16    26    27   ar
    17    27    28    1
    18    28    29   ar
    19    29    30   ar
    20    30    31   ar
    21    31    32   ar
    22     4     5    1
    23     5     6    1
    24     8    11    1
    25    11    12   ar
    26    12    13   ar
    27    13    14   ar
    28    14    15   ar
    29    15    16   ar
    30     6     1    1
    31    16    11   ar
    32    32    21    1
    33    27    22   ar
    34    32    28   ar
    35     9    10    1
    36    18    19    1
@<TRIPOS>MOLECULE
*****
 32 36 0 0 0
SMALL
GASTEIGER

@<TRIPOS>ATOM
      1 C          71.7444   77.8618   12.4617 C.3     1  UNL1        0.0719
      2 C          72.2379   78.0243   13.8688 C.3     1  UNL1        0.0197
      3 C          72.4221   76.8192   14.7428 C.3     1  UNL1        0.0041
      4 C          72.1128   75.4517   14.2096 C.3     1  UNL1        0.0271
      5 C          71.6193   75.2892   12.8025 C.3     1  UNL1        0.0041
      6 C          71.4351   76.4943   11.9285 C.3     1  UNL1        0.0197
      7 O          73.5647   78.3084   10.1192 O.2     1  UNL1       -0.2701
      8 C          72.4703   79.2902   10.4165 C.2     1  UNL1        0.2458
      9 N          71.5602   79.0669   11.5877 N.am    1  UNL1       -0.3025
     10 H          70.8419   79.7112   11.7827 H       1  UNL1        0.1497
     11 C          72.2860   80.4953    9.5425 C.ar    1  UNL1        0.0534
     12 C          72.0199   80.3246    8.0762 C.ar    1  UNL1        0.0045
     13 C          71.8356   81.5297    7.2022 C.ar    1  UNL1        0.0001
     14 C          71.9175   82.9053    7.7945 C.ar    1  UNL1        0.0000
     15 C          72.1836   83.0760    9.2608 C.ar    1  UNL1        0.0001
     16 C          72.3679   81.8709   10.1348 C.ar    1  UNL1        0.0045
     17 C          72.2969   74.2466   15.0836 C.3     1  UNL1        0.1127
     18 O          71.8139   74.2689   16.5035 O.3     1  UNL1       -0.3844
     19 H          72.0095   73.4175   16.9250 H       1  UNL1        0.2103
     20 C          72.9642   73.0190   14.5376 C.3     1  UNL1        0.0564
     21 C          72.2395   71.7057   14.5439 C.3     1  UNL1        0.1119
     22 C          71.2271   71.2525   13.5341 C.ar    1  UNL1       -0.0002
     23 C          70.6688   71.9109   12.3075 C.ar    1  UNL1       -0.0024
     24 C          69.6452   71.1986   11.4739 C.ar    1  UNL1       -0.0003
     25 C          69.1799   69.8279   11.8671 C.ar    1  UNL1        0.0000
     26 C          69.7382   69.1695   13.0938 C.ar    1  UNL1        0.0012
     27 C          70.7618   69.8818   13.9273 C.ar    1  UNL1        0.0152
     28 C          71.4866   69.4879   15.1801 C.ar    1  UNL1        0.0804
     29 C          71.6470   68.3971   16.1973 C.ar    1  UNL1        0.1177
     30 N          72.6595   68.8504   17.2071 N.ar    1  UNL1       -0.2223
     31 C          73.1248   70.2212   16.8139 C.ar    1  UNL1        0.1788
     32 N          72.3999   70.6151   15.5612 N.ar    1  UNL1       -0.3069
@<TRIPOS>BOND
     1     7     8    2
     2     8     9   am
     3     1     9    1
     4     1     2    1
     5     2     3    1
     6     3     4    1
     7     4    17    1
     8    17    18    1
     9    17    20    1
    10    20    21    1
    11    21    22    1
    12    22    23   ar
    13    23    24   ar
    14    24    25   ar
    15    25    26   ar
    16    26    27   ar
    17    27    28    1
    18    28    29   ar
    19    29    30   ar
    20    30    31   ar
    21    31    32   ar
    22     4     5    1
    23     5     6    1
    24     8    11    1
    25    11    12   ar
    26    12    13   ar
    27    13    14   ar
    28    14    15   ar
    29    15    16   ar
    30     6     1    1
    31    16    11   ar
    32    32    21    1
    33    27    22   ar
    34    32    28   ar
    35     9    10    1
    36    18    19    1
