@<TRIPOS>MOLECULE
*****
 49 55 0 0 0
SMALL
GASTEIGER

@<TRIPOS>ATOM
      1 C          59.7990   89.8316    7.0323 C.ar    1  UNL1        0.1320
      2 C          59.6322   88.3410    7.0119 C.ar    1  UNL1        0.0374
      3 C          59.7059   87.5605    8.2907 C.ar    1  UNL1        0.0414
      4 C          59.9463   88.2706    9.5900 C.ar    1  UNL1        0.1579
      5 C          60.1131   89.7612    9.6103 C.ar    1  UNL1        0.1370
      6 N          60.0395   90.5416    8.3315 N.ar    1  UNL1       -0.2260
      7 N          59.5780   92.1730    3.1958 N.pl3   1  UNL1       -0.3041
      8 C          60.8975   91.6491    3.6797 C.3     1  UNL1        0.1123
      9 C          60.9713   90.8686    4.9586 C.3     1  UNL1        0.1136
     10 N          59.7253   90.6120    5.7535 N.pl3   1  UNL1       -0.2897
     11 C          58.4057   91.1359    5.2695 C.3     1  UNL1        0.1136
     12 C          58.3320   91.9164    3.9906 C.3     1  UNL1        0.1123
     13 C          59.3568   94.5143   -0.6408 C.ar    1  UNL1        0.0699
     14 C          58.8269   93.1121   -0.5863 C.ar    1  UNL1        0.0190
     15 C          58.9007   92.3317    0.6925 C.ar    1  UNL1        0.0160
     16 C          59.5042   92.9535    1.9169 C.ar    1  UNL1        0.0480
     17 C          60.0341   94.3557    1.8624 C.ar    1  UNL1        0.0160
     18 C          59.9603   95.1361    0.5836 C.ar    1  UNL1        0.0190
     19 N          59.7782   96.1383   -4.1409 N.ar    1  UNL1       -0.2024
     20 N          58.5609   96.8534   -3.6343 N.ar    1  UNL1       -0.1442
     21 C          58.2548   96.3321   -2.2615 C.ar    1  UNL1        0.2073
     22 N          59.2830   95.2948   -1.9197 N.ar    1  UNL1       -0.2398
     23 C          60.2245   95.1750   -3.0812 C.ar    1  UNL1        0.3522
     24 O          61.4051   94.2537   -3.1679 O.2     1  UNL1       -0.2444
     25 C          60.4341   96.3494   -5.4733 C.3     1  UNL1        0.1099
     26 C          59.6440   96.1678   -6.7353 C.3     1  UNL1        0.0265
     27 C          62.8487   95.9011   -6.3212 C.3     1  UNL1        0.0021
     28 C          61.8801   96.7420   -5.5437 C.3     1  UNL1        0.0245
     29 O          60.0200   87.4901   10.8688 O.3     1  UNL1       -0.4712
     30 C          61.3532   87.0884   11.4264 C.3     1  UNL1        0.2374
     31 C          62.2156   88.1049   12.1143 C.3     1  UNL1        0.1909
     32 C          62.1253   89.5932   11.9509 C.3     1  UNL1        0.1783
     33 O          63.1736   90.2197   12.8220 O.3     1  UNL1       -0.3266
     34 C          63.9117   89.1184   13.5237 C.3     1  UNL1        0.2315
     35 O          63.3197   87.8114   13.0864 O.3     1  UNL1       -0.3254
     36 C          64.6922   90.2444   14.1345 C.ar    1  UNL1        0.0410
     37 C          65.8731   90.8184   13.4092 C.ar    1  UNL1        0.0022
     38 C          66.6536   91.9445   14.0199 C.ar    1  UNL1        0.0113
     39 C          66.2532   92.4965   15.3558 C.ar    1  UNL1        0.0585
     40 CL         67.0336   93.6225   15.9665 Cl      1  UNL1       -0.0822
     41 C          65.0723   91.9226   16.0812 C.ar    1  UNL1        0.0226
     42 C          64.2918   90.7965   15.4705 C.ar    1  UNL1        0.0591
     43 CL         63.1109   90.2225   16.1958 Cl      1  UNL1       -0.0824
     44 C          64.8131   88.2527   14.3532 C.3     1  UNL1        0.1897
     45 N          64.2650   87.0320   15.0310 N.ar    1  UNL1       -0.2246
     46 C          64.5897   85.6095   14.6831 C.ar    1  UNL1        0.1974
     47 N          63.8213   84.7179   15.6129 N.ar    1  UNL1       -0.2007
     48 C          63.0216   85.5893   16.5355 C.ar    1  UNL1        0.2210
     49 N          63.2958   87.0195   16.1759 N.ar    1  UNL1       -0.1450
@<TRIPOS>BOND
     1    27    28    1
     2    28    25    1
     3    25    26    1
     4    25    19    1
     5    19    20   ar
     6    20    21   ar
     7    21    22   ar
     8    22    13    1
     9    13    14   ar
    10    14    15   ar
    11    15    16   ar
    12    16     7    1
    13     7     8    1
    14     8     9    1
    15     9    10    1
    16    10     1    1
    17     1     2   ar
    18     2     3   ar
    19     3     4   ar
    20     4    29    1
    21    29    30    1
    22    31    30    1
    23    31    32    1
    24    32    33    1
    25    33    34    1
    26    34    44    1
    27    44    45    1
    28    45    46   ar
    29    46    47   ar
    30    47    48   ar
    31    48    49   ar
    32    34    36    1
    33    36    37   ar
    34    37    38   ar
    35    38    39   ar
    36    39    40    1
    37    39    41   ar
    38    41    42   ar
    39    42    43    1
    40    34    35    1
    41     4     5   ar
    42     5     6   ar
    43    10    11    1
    44    11    12    1
    45    16    17   ar
    46    17    18   ar
    47    22    23   ar
    48    23    24    2
    49    23    19   ar
    50    18    13   ar
    51    12     7    1
    52     6     1   ar
    53    35    31    1
    54    49    45   ar
    55    42    36   ar
@<TRIPOS>MOLECULE
*****
 49 55 0 0 0
SMALL
GASTEIGER

@<TRIPOS>ATOM
      1 C          59.3844   93.4367    1.8359 C.ar    1  UNL1        0.1320
      2 C          60.0344   94.7863    1.7571 C.ar    1  UNL1        0.0374
      3 C          59.7981   95.6641    0.5639 C.ar    1  UNL1        0.0414
      4 C          58.9118   95.1923   -0.5505 C.ar    1  UNL1        0.1579
      5 C          58.2618   93.8426   -0.4717 C.ar    1  UNL1        0.1370
      6 N          58.4981   92.9649    0.7215 N.ar    1  UNL1       -0.2260
      7 N          60.0935   90.8035    5.4155 N.pl3   1  UNL1       -0.3041
      8 C          58.7031   91.2565    5.0813 C.3     1  UNL1        0.1123
      9 C          58.4667   92.1343    3.8881 C.3     1  UNL1        0.1136
     10 N          59.6207   92.5590    3.0291 N.pl3   1  UNL1       -0.2897
     11 C          61.0111   92.1060    3.3633 C.3     1  UNL1        0.1136
     12 C          61.2475   91.2283    4.5565 C.3     1  UNL1        0.1123
     13 C          60.8027   88.1704    8.9951 C.ar    1  UNL1        0.0699
     14 C          61.3977   89.5464    8.9466 C.ar    1  UNL1        0.0190
     15 C          61.1613   90.4241    7.7534 C.ar    1  UNL1        0.0160
     16 C          60.3298   89.9258    6.6087 C.ar    1  UNL1        0.0480
     17 C          59.7348   88.5498    6.6572 C.ar    1  UNL1        0.0160
     18 C          59.9712   87.6721    7.8504 C.ar    1  UNL1        0.0190
     19 N          61.8834   85.5278   11.6246 N.ar    1  UNL1       -0.2024
     20 N          60.9221   86.3562   12.4244 N.ar    1  UNL1       -0.1442
     21 C          60.4003   87.4470   11.5367 C.ar    1  UNL1        0.2073
     22 N          61.0390   87.2927   10.1883 N.ar    1  UNL1       -0.2398
     23 C          61.9556   86.1066   10.2426 C.ar    1  UNL1        0.3522
     24 O          62.7968   85.5899    9.1133 O.2     1  UNL1       -0.2444
     25 C          62.6397   84.3307   12.1198 C.3     1  UNL1        0.1099
     26 C          63.2097   84.3250   13.5072 C.3     1  UNL1        0.0265
     27 C          64.1885   82.8054   10.6970 C.3     1  UNL1        0.0021
     28 C          62.8259   83.1394   11.2275 C.3     1  UNL1        0.0245
     29 O          58.6754   96.0700   -1.7437 O.3     1  UNL1       -0.4712
     30 C          58.7380   95.4899   -3.1255 C.3     1  UNL1        0.2374
     31 C          60.0647   95.2956   -3.7980 C.3     1  UNL1        0.1909
     32 C          60.2897   94.6546   -5.1354 C.3     1  UNL1        0.1783
     33 O          61.7633   94.6709   -5.4152 O.3     1  UNL1       -0.3266
     34 C          62.4490   95.3219   -4.2506 C.3     1  UNL1        0.2315
     35 O          61.3992   95.7080   -3.2512 O.3     1  UNL1       -0.3254
     36 C          63.6967   95.0606   -5.0412 C.ar    1  UNL1        0.0410
     37 C          64.3862   96.1890   -5.7490 C.ar    1  UNL1        0.0022
     38 C          65.6339   95.9277   -6.5396 C.ar    1  UNL1        0.0113
     39 C          66.1920   94.5379   -6.6223 C.ar    1  UNL1        0.0585
     40 CL         67.4397   94.2766   -7.4129 Cl      1  UNL1       -0.0822
     41 C          65.5026   93.4094   -5.9145 C.ar    1  UNL1        0.0226
     42 C          64.2548   93.6707   -5.1239 C.ar    1  UNL1        0.0591
     43 CL         63.5653   92.5422   -4.4160 Cl      1  UNL1       -0.0824
     44 C          63.3955   95.9183   -3.2514 C.3     1  UNL1        0.1897
     45 N          63.4323   95.3930   -1.8469 N.ar    1  UNL1       -0.2246
     46 C          63.3906   96.2187   -0.5953 C.ar    1  UNL1        0.1974
     47 N          63.4498   95.2858    0.5777 N.ar    1  UNL1       -0.2007
     48 C          63.5282   93.8834    0.0512 C.ar    1  UNL1        0.2210
     49 N          63.5174   93.9497   -1.4473 N.ar    1  UNL1       -0.1450
@<TRIPOS>BOND
     1    27    28    1
     2    28    25    1
     3    25    26    1
     4    25    19    1
     5    19    20   ar
     6    20    21   ar
     7    21    22   ar
     8    22    13    1
     9    13    14   ar
    10    14    15   ar
    11    15    16   ar
    12    16     7    1
    13     7     8    1
    14     8     9    1
    15     9    10    1
    16    10     1    1
    17     1     2   ar
    18     2     3   ar
    19     3     4   ar
    20     4    29    1
    21    29    30    1
    22    31    30    1
    23    31    32    1
    24    32    33    1
    25    33    34    1
    26    34    44    1
    27    44    45    1
    28    45    46   ar
    29    46    47   ar
    30    47    48   ar
    31    48    49   ar
    32    34    36    1
    33    36    37   ar
    34    37    38   ar
    35    38    39   ar
    36    39    40    1
    37    39    41   ar
    38    41    42   ar
    39    42    43    1
    40    34    35    1
    41     4     5   ar
    42     5     6   ar
    43    10    11    1
    44    11    12    1
    45    16    17   ar
    46    17    18   ar
    47    22    23   ar
    48    23    24    2
    49    23    19   ar
    50    18    13   ar
    51    12     7    1
    52     6     1   ar
    53    35    31    1
    54    49    45   ar
    55    42    36   ar
@<TRIPOS>MOLECULE
*****
 49 55 0 0 0
SMALL
GASTEIGER

@<TRIPOS>ATOM
      1 C          60.1118   89.8089    7.4446 C.ar    1  UNL1        0.1320
      2 C          60.0154   88.3121    7.4610 C.ar    1  UNL1        0.0374
      3 C          60.1955   87.5629    8.7480 C.ar    1  UNL1        0.0414
      4 C          60.4720   88.3106   10.0186 C.ar    1  UNL1        0.1579
      5 C          60.5684   89.8074   10.0023 C.ar    1  UNL1        0.1370
      6 N          60.3882   90.5566    8.7153 N.ar    1  UNL1       -0.2260
      7 N          59.5714   92.0563    3.5837 N.pl3   1  UNL1       -0.3041
      8 C          60.9291   91.5528    3.9746 C.3     1  UNL1        0.1123
      9 C          61.1093   90.8036    5.2617 C.3     1  UNL1        0.1136
     10 N          59.9316   90.5580    6.1577 N.pl3   1  UNL1       -0.2897
     11 C          58.5738   91.0616    5.7666 C.3     1  UNL1        0.1136
     12 C          58.3937   91.8107    4.4797 C.3     1  UNL1        0.1123
     13 C          59.0308   94.3036   -0.2773 C.ar    1  UNL1        0.0699
     14 C          58.2534   93.0456   -0.0266 C.ar    1  UNL1        0.0190
     15 C          58.4336   92.2965    1.2603 C.ar    1  UNL1        0.0160
     16 C          59.3912   92.8054    2.2966 C.ar    1  UNL1        0.0480
     17 C          60.1686   94.0635    2.0460 C.ar    1  UNL1        0.0160
     18 C          59.9884   94.8126    0.7590 C.ar    1  UNL1        0.0190
     19 N          58.6544   95.5662   -3.9283 N.ar    1  UNL1       -0.2024
     20 N          58.4923   96.8451   -3.1612 N.ar    1  UNL1       -0.1442
     21 C          58.6136   96.5277   -1.7002 C.ar    1  UNL1        0.2073
     22 N          58.8506   95.0528   -1.5643 N.ar    1  UNL1       -0.2398
     23 C          58.8758   94.4585   -2.9414 C.ar    1  UNL1        0.3522
     24 O          59.0856   93.0109   -3.2733 O.2     1  UNL1       -0.2444
     25 C          58.6039   95.4206   -5.4204 C.3     1  UNL1        0.1099
     26 C          59.8764   95.3804   -6.2135 C.3     1  UNL1        0.0265
     27 C          56.0073   95.4171   -5.3337 C.3     1  UNL1        0.0021
     28 C          57.2809   95.3153   -6.1194 C.3     1  UNL1        0.0245
     29 O          60.6521   87.5615   11.3056 O.3     1  UNL1       -0.4712
     30 C          62.0158   87.0883   11.7134 C.3     1  UNL1        0.2374
     31 C          62.9284   88.0002   12.4787 C.3     1  UNL1        0.1909
     32 C          63.9437   87.5782   13.4990 C.3     1  UNL1        0.1783
     33 O          64.6287   88.8114   14.0089 O.3     1  UNL1       -0.3266
     34 C          64.0367   89.9956   13.3037 C.3     1  UNL1        0.2315
     35 O          62.9858   89.4943   12.3580 O.3     1  UNL1       -0.3254
     36 C          65.0061   90.7787   14.1385 C.ar    1  UNL1        0.0410
     37 C          66.4004   91.0198   13.6407 C.ar    1  UNL1        0.0022
     38 C          67.3699   91.8030   14.4755 C.ar    1  UNL1        0.0113
     39 C          66.9451   92.3449   15.8081 C.ar    1  UNL1        0.0585
     40 CL         67.9146   93.1280   16.6429 Cl      1  UNL1       -0.0822
     41 C          65.5508   92.1038   16.3059 C.ar    1  UNL1        0.0226
     42 C          64.5813   91.3207   15.4711 C.ar    1  UNL1        0.0591
     43 CL         63.1870   91.0796   15.9689 Cl      1  UNL1       -0.0824
     44 C          63.6474   91.3435   12.7731 C.3     1  UNL1        0.1897
     45 N          64.6001   92.1120   11.9061 N.ar    1  UNL1       -0.2246
     46 C          65.1098   91.6844   10.5618 C.ar    1  UNL1        0.1974
     47 N          66.0351   92.7512   10.0561 N.ar    1  UNL1       -0.2007
     48 C          66.0973   93.8381   11.0879 C.ar    1  UNL1        0.2210
     49 N          65.2104   93.4431   12.2313 N.ar    1  UNL1       -0.1450
@<TRIPOS>BOND
     1    27    28    1
     2    28    25    1
     3    25    26    1
     4    25    19    1
     5    19    20   ar
     6    20    21   ar
     7    21    22   ar
     8    22    13    1
     9    13    14   ar
    10    14    15   ar
    11    15    16   ar
    12    16     7    1
    13     7     8    1
    14     8     9    1
    15     9    10    1
    16    10     1    1
    17     1     2   ar
    18     2     3   ar
    19     3     4   ar
    20     4    29    1
    21    29    30    1
    22    31    30    1
    23    31    32    1
    24    32    33    1
    25    33    34    1
    26    34    44    1
    27    44    45    1
    28    45    46   ar
    29    46    47   ar
    30    47    48   ar
    31    48    49   ar
    32    34    36    1
    33    36    37   ar
    34    37    38   ar
    35    38    39   ar
    36    39    40    1
    37    39    41   ar
    38    41    42   ar
    39    42    43    1
    40    34    35    1
    41     4     5   ar
    42     5     6   ar
    43    10    11    1
    44    11    12    1
    45    16    17   ar
    46    17    18   ar
    47    22    23   ar
    48    23    24    2
    49    23    19   ar
    50    18    13   ar
    51    12     7    1
    52     6     1   ar
    53    35    31    1
    54    49    45   ar
    55    42    36   ar
@<TRIPOS>MOLECULE
*****
 49 55 0 0 0
SMALL
GASTEIGER

@<TRIPOS>ATOM
      1 C          59.9863   90.0122    6.3158 C.ar    1  UNL1        0.1320
      2 C          60.7085   90.3623    7.5829 C.ar    1  UNL1        0.0374
      3 C          60.4073   89.6159    8.8487 C.ar    1  UNL1        0.0414
      4 C          59.3837   88.5194    8.8473 C.ar    1  UNL1        0.1579
      5 C          58.6615   88.1693    7.5801 C.ar    1  UNL1        0.1370
      6 N          58.9627   88.9157    6.3143 N.ar    1  UNL1       -0.2260
      7 N          60.8901   92.2514    2.5186 N.pl3   1  UNL1       -0.3041
      8 C          59.5158   92.3129    3.1164 C.3     1  UNL1        0.1123
      9 C          59.2145   91.5665    4.3822 C.3     1  UNL1        0.1136
     10 N          60.2875   90.7586    5.0501 N.pl3   1  UNL1       -0.2897
     11 C          61.6619   90.6972    4.4521 C.3     1  UNL1        0.1136
     12 C          61.9632   91.4436    3.1864 C.3     1  UNL1        0.1123
     13 C          61.7941   94.4906   -1.2787 C.ar    1  UNL1        0.0699
     14 C          61.4331   93.0357   -1.3337 C.ar    1  UNL1        0.0190
     15 C          61.1318   92.2894   -0.0680 C.ar    1  UNL1        0.0160
     16 C          61.1915   92.9979    1.2528 C.ar    1  UNL1        0.0480
     17 C          61.5524   94.4527    1.3078 C.ar    1  UNL1        0.0160
     18 C          61.8537   95.1991    0.0421 C.ar    1  UNL1        0.0190
     19 N          62.0593   95.9642   -4.8597 N.ar    1  UNL1       -0.2024
     20 N          63.0590   96.8070   -4.1247 N.ar    1  UNL1       -0.1442
     21 C          63.0813   96.3576   -2.6938 C.ar    1  UNL1        0.2073
     22 N          62.0954   95.2370   -2.5445 N.ar    1  UNL1       -0.2398
     23 C          61.4637   94.9939   -3.8831 C.ar    1  UNL1        0.3522
     24 O          60.4198   93.9617   -4.1910 O.2     1  UNL1       -0.2444
     25 C          61.7154   96.0727   -6.3158 C.3     1  UNL1        0.1099
     26 C          60.5102   96.8555   -6.7455 C.3     1  UNL1        0.0265
     27 C          62.4706   93.9173   -7.5543 C.3     1  UNL1        0.0021
     28 C          62.5768   95.3983   -7.3421 C.3     1  UNL1        0.0245
     29 O          59.0825   87.7730   10.1130 O.3     1  UNL1       -0.4712
     30 C          59.1615   88.4765   11.4354 C.3     1  UNL1        0.2374
     31 C          60.4140   89.2048   11.8239 C.3     1  UNL1        0.1909
     32 C          60.5878   90.6938   11.8764 C.3     1  UNL1        0.1783
     33 O          61.9937   90.9813   12.3130 O.3     1  UNL1       -0.3266
     34 C          62.6889   89.6699   12.5304 C.3     1  UNL1        0.2315
     35 O          61.7125   88.5721   12.2281 O.3     1  UNL1       -0.3254
     36 C          63.8618   90.5314   12.8940 C.ar    1  UNL1        0.0410
     37 C          64.4666   90.4358   14.2633 C.ar    1  UNL1        0.0022
     38 C          65.6396   91.2972   14.6269 C.ar    1  UNL1        0.0113
     39 C          66.2076   92.2542   13.6213 C.ar    1  UNL1        0.0585
     40 CL         67.3805   93.1156   13.9849 Cl      1  UNL1       -0.0822
     41 C          65.6028   92.3499   12.2519 C.ar    1  UNL1        0.0226
     42 C          64.4298   91.4884   11.8883 C.ar    1  UNL1        0.0591
     43 CL         63.8250   91.5840   10.5190 Cl      1  UNL1       -0.0824
     44 C          63.6292   88.5387   12.8237 C.3     1  UNL1        0.1897
     45 N          63.2667   87.1392   12.4239 N.ar    1  UNL1       -0.2246
     46 C          63.4274   85.9109   13.2697 C.ar    1  UNL1        0.1974
     47 N          62.9399   84.7349   12.4766 N.ar    1  UNL1       -0.2007
     48 C          62.4779   85.2362   11.1405 C.ar    1  UNL1        0.2210
     49 N          62.6799   86.7222   11.1079 N.ar    1  UNL1       -0.1450
@<TRIPOS>BOND
     1    27    28    1
     2    28    25    1
     3    25    26    1
     4    25    19    1
     5    19    20   ar
     6    20    21   ar
     7    21    22   ar
     8    22    13    1
     9    13    14   ar
    10    14    15   ar
    11    15    16   ar
    12    16     7    1
    13     7     8    1
    14     8     9    1
    15     9    10    1
    16    10     1    1
    17     1     2   ar
    18     2     3   ar
    19     3     4   ar
    20     4    29    1
    21    29    30    1
    22    31    30    1
    23    31    32    1
    24    32    33    1
    25    33    34    1
    26    34    44    1
    27    44    45    1
    28    45    46   ar
    29    46    47   ar
    30    47    48   ar
    31    48    49   ar
    32    34    36    1
    33    36    37   ar
    34    37    38   ar
    35    38    39   ar
    36    39    40    1
    37    39    41   ar
    38    41    42   ar
    39    42    43    1
    40    34    35    1
    41     4     5   ar
    42     5     6   ar
    43    10    11    1
    44    11    12    1
    45    16    17   ar
    46    17    18   ar
    47    22    23   ar
    48    23    24    2
    49    23    19   ar
    50    18    13   ar
    51    12     7    1
    52     6     1   ar
    53    35    31    1
    54    49    45   ar
    55    42    36   ar
@<TRIPOS>MOLECULE
*****
 49 55 0 0 0
SMALL
GASTEIGER

@<TRIPOS>ATOM
      1 C          60.5218   90.4641    6.7029 C.ar    1  UNL1        0.1320
      2 C          61.5634   90.9448    7.6693 C.ar    1  UNL1        0.0374
      3 C          61.6468   90.3452    9.0418 C.ar    1  UNL1        0.0414
      4 C          60.6886   89.2650    9.4478 C.ar    1  UNL1        0.1579
      5 C          59.6469   88.7843    8.4814 C.ar    1  UNL1        0.1370
      6 N          59.5635   89.3839    7.1090 N.ar    1  UNL1       -0.2260
      7 N          60.2715   92.2627    2.5856 N.pl3   1  UNL1       -0.3041
      8 C          61.5810   91.7396    3.0972 C.3     1  UNL1        0.1123
      9 C          61.6644   91.1401    4.4697 C.3     1  UNL1        0.1136
     10 N          60.4384   91.0636    5.3305 N.pl3   1  UNL1       -0.2897
     11 C          59.1289   91.5867    4.8188 C.3     1  UNL1        0.1136
     12 C          59.0455   92.1863    3.4464 C.3     1  UNL1        0.1123
     13 C          60.0213   94.0614   -1.5317 C.ar    1  UNL1        0.0699
     14 C          61.2870   93.3950   -1.0800 C.ar    1  UNL1        0.0190
     15 C          61.3704   92.7955    0.2924 C.ar    1  UNL1        0.0160
     16 C          60.1881   92.8623    1.2131 C.ar    1  UNL1        0.0480
     17 C          58.9224   93.5286    0.7615 C.ar    1  UNL1        0.0160
     18 C          58.8391   94.1281   -0.6110 C.ar    1  UNL1        0.0190
     19 N          59.2838   95.0824   -5.2031 N.ar    1  UNL1       -0.2024
     20 N          60.3353   96.0848   -4.8291 N.ar    1  UNL1       -0.1442
     21 C          60.7395   95.8243   -3.4083 C.ar    1  UNL1        0.2073
     22 N          59.9379   94.6609   -2.9042 N.ar    1  UNL1       -0.2398
     23 C          59.0383   94.2024   -4.0134 C.ar    1  UNL1        0.3522
     24 O          58.0641   93.0639   -3.9450 O.2     1  UNL1       -0.2444
     25 C          58.5983   94.9783   -6.5333 C.3     1  UNL1        0.1099
     26 C          57.7166   96.0934   -7.0119 C.3     1  UNL1        0.0265
     27 C          57.7560   92.6771   -7.3963 C.3     1  UNL1        0.0021
     28 C          58.7946   93.7592   -7.3848 C.3     1  UNL1        0.0245
     29 O          60.7720   88.6655   10.8202 O.3     1  UNL1       -0.4712
     30 C          62.0617   88.0696   11.3012 C.3     1  UNL1        0.2374
     31 C          62.1443   86.6020   11.6006 C.3     1  UNL1        0.1909
     32 C          61.4792   85.5049   10.8234 C.3     1  UNL1        0.1783
     33 O          61.8303   84.1988   11.4721 O.3     1  UNL1       -0.3266
     34 C          62.7124   84.4887   12.6502 C.3     1  UNL1        0.2315
     35 O          62.9065   85.9740   12.7295 O.3     1  UNL1       -0.3254
     36 C          62.7023   82.9989   12.8247 C.ar    1  UNL1        0.0410
     37 C          61.9376   82.3818   13.9579 C.ar    1  UNL1        0.0022
     38 C          61.9274   80.8919   14.1325 C.ar    1  UNL1        0.0113
     39 C          62.6820   80.0194   13.1738 C.ar    1  UNL1        0.0585
     40 CL         62.6719   78.5296   13.3483 Cl      1  UNL1       -0.0822
     41 C          63.4468   80.6365   12.0405 C.ar    1  UNL1        0.0226
     42 C          63.4569   82.1263   11.8660 C.ar    1  UNL1        0.0591
     43 CL         64.2216   82.7435   10.7327 Cl      1  UNL1       -0.0824
     44 C          63.5924   84.4672   13.8647 C.3     1  UNL1        0.1897
     45 N          63.1977   85.2360   15.0907 N.ar    1  UNL1       -0.2246
     46 C          62.1240   84.8514   16.0649 C.ar    1  UNL1        0.1974
     47 N          62.0700   85.9021   17.1340 N.ar    1  UNL1       -0.2007
     48 C          63.1104   86.9362   16.8205 C.ar    1  UNL1        0.2210
     49 N          63.8073   86.5245   15.5577 N.ar    1  UNL1       -0.1450
@<TRIPOS>BOND
     1    27    28    1
     2    28    25    1
     3    25    26    1
     4    25    19    1
     5    19    20   ar
     6    20    21   ar
     7    21    22   ar
     8    22    13    1
     9    13    14   ar
    10    14    15   ar
    11    15    16   ar
    12    16     7    1
    13     7     8    1
    14     8     9    1
    15     9    10    1
    16    10     1    1
    17     1     2   ar
    18     2     3   ar
    19     3     4   ar
    20     4    29    1
    21    29    30    1
    22    31    30    1
    23    31    32    1
    24    32    33    1
    25    33    34    1
    26    34    44    1
    27    44    45    1
    28    45    46   ar
    29    46    47   ar
    30    47    48   ar
    31    48    49   ar
    32    34    36    1
    33    36    37   ar
    34    37    38   ar
    35    38    39   ar
    36    39    40    1
    37    39    41   ar
    38    41    42   ar
    39    42    43    1
    40    34    35    1
    41     4     5   ar
    42     5     6   ar
    43    10    11    1
    44    11    12    1
    45    16    17   ar
    46    17    18   ar
    47    22    23   ar
    48    23    24    2
    49    23    19   ar
    50    18    13   ar
    51    12     7    1
    52     6     1   ar
    53    35    31    1
    54    49    45   ar
    55    42    36   ar
@<TRIPOS>MOLECULE
*****
 49 55 0 0 0
SMALL
GASTEIGER

@<TRIPOS>ATOM
      1 C          60.3645   90.3882    7.0118 C.ar    1  UNL1        0.1320
      2 C          61.3729   90.9074    7.9933 C.ar    1  UNL1        0.0374
      3 C          61.4822   90.2877    9.3550 C.ar    1  UNL1        0.0414
      4 C          60.5830   89.1488    9.7351 C.ar    1  UNL1        0.1579
      5 C          59.5746   88.6296    8.7535 C.ar    1  UNL1        0.1370
      6 N          59.4653   89.2493    7.3919 N.ar    1  UNL1       -0.2260
      7 N          60.0368   92.2473    2.9269 N.pl3   1  UNL1       -0.3041
      8 C          58.8221   92.1361    3.8000 C.3     1  UNL1        0.1123
      9 C          58.9313   91.5164    5.1616 C.3     1  UNL1        0.1136
     10 N          60.2552   91.0079    5.6502 N.pl3   1  UNL1       -0.2897
     11 C          61.4699   91.1191    4.7771 C.3     1  UNL1        0.1136
     12 C          61.3607   91.7388    3.4155 C.3     1  UNL1        0.1123
     13 C          59.7091   94.1065   -1.1579 C.ar    1  UNL1        0.0699
     14 C          59.6486   94.9708    0.0665 C.ar    1  UNL1        0.0190
     15 C          59.7578   94.3511    1.4281 C.ar    1  UNL1        0.0160
     16 C          59.9275   92.8670    1.5652 C.ar    1  UNL1        0.0480
     17 C          59.9880   92.0027    0.3408 C.ar    1  UNL1        0.0160
     18 C          59.8788   92.6224   -1.0208 C.ar    1  UNL1        0.0190
     19 N          60.1028   95.3984   -4.7968 N.ar    1  UNL1       -0.2024
     20 N          58.7608   95.9613   -4.4330 N.ar    1  UNL1       -0.1442
     21 C          58.4500   95.5458   -3.0256 C.ar    1  UNL1        0.2073
     22 N          59.5999   94.7262   -2.5196 N.ar    1  UNL1       -0.2398
     23 C          60.6213   94.6351   -3.6143 C.ar    1  UNL1        0.3522
     24 O          61.9313   93.9082   -3.5396 O.2     1  UNL1       -0.2444
     25 C          60.8032   95.5689   -6.1123 C.3     1  UNL1        0.1099
     26 C          60.7146   94.4933   -7.1541 C.3     1  UNL1        0.0265
     27 C          63.0785   96.8208   -6.1853 C.3     1  UNL1        0.0021
     28 C          61.5921   96.8149   -6.3860 C.3     1  UNL1        0.0245
     29 O          60.6923   88.5291   11.0967 O.3     1  UNL1       -0.4712
     30 C          61.9743   87.8779   11.5236 C.3     1  UNL1        0.2374
     31 C          62.0969   86.3829   11.5102 C.3     1  UNL1        0.1909
     32 C          61.5043   85.4588   10.4879 C.3     1  UNL1        0.1783
     33 O          61.8747   84.0544   10.8626 O.3     1  UNL1       -0.3266
     34 C          62.6962   84.1105   12.1164 C.3     1  UNL1        0.2315
     35 O          62.8335   85.5496   12.5166 O.3     1  UNL1       -0.3254
     36 C          62.7322   82.6179   11.9719 C.ar    1  UNL1        0.0410
     37 C          62.1039   81.7477   13.0197 C.ar    1  UNL1        0.0022
     38 C          62.1399   80.2550   12.8753 C.ar    1  UNL1        0.0113
     39 C          62.8042   79.6327   11.6831 C.ar    1  UNL1        0.0585
     40 CL         62.8402   78.1401   11.5387 Cl      1  UNL1       -0.0822
     41 C          63.4325   80.5029   10.6353 C.ar    1  UNL1        0.0226
     42 C          63.3965   81.9956   10.7797 C.ar    1  UNL1        0.0591
     43 CL         64.0248   82.8658    9.7319 Cl      1  UNL1       -0.0824
     44 C          63.5253   83.8545   13.3399 C.3     1  UNL1        0.1897
     45 N          63.2789   84.6439   14.5915 N.ar    1  UNL1       -0.2246
     46 C          64.1952   85.6770   15.1770 C.ar    1  UNL1        0.1974
     47 N          63.5556   86.2103   16.4245 N.ar    1  UNL1       -0.2007
     48 C          62.2439   85.5066   16.6101 C.ar    1  UNL1        0.2210
     49 N          62.0729   84.5385   15.4772 N.ar    1  UNL1       -0.1450
@<TRIPOS>BOND
     1    27    28    1
     2    28    25    1
     3    25    26    1
     4    25    19    1
     5    19    20   ar
     6    20    21   ar
     7    21    22   ar
     8    22    13    1
     9    13    14   ar
    10    14    15   ar
    11    15    16   ar
    12    16     7    1
    13     7     8    1
    14     8     9    1
    15     9    10    1
    16    10     1    1
    17     1     2   ar
    18     2     3   ar
    19     3     4   ar
    20     4    29    1
    21    29    30    1
    22    31    30    1
    23    31    32    1
    24    32    33    1
    25    33    34    1
    26    34    44    1
    27    44    45    1
    28    45    46   ar
    29    46    47   ar
    30    47    48   ar
    31    48    49   ar
    32    34    36    1
    33    36    37   ar
    34    37    38   ar
    35    38    39   ar
    36    39    40    1
    37    39    41   ar
    38    41    42   ar
    39    42    43    1
    40    34    35    1
    41     4     5   ar
    42     5     6   ar
    43    10    11    1
    44    11    12    1
    45    16    17   ar
    46    17    18   ar
    47    22    23   ar
    48    23    24    2
    49    23    19   ar
    50    18    13   ar
    51    12     7    1
    52     6     1   ar
    53    35    31    1
    54    49    45   ar
    55    42    36   ar
