@<TRIPOS>MOLECULE
*****
 30 34 0 0 0
SMALL
GASTEIGER

@<TRIPOS>ATOM
      1 C          62.4846   92.9358    2.0053 C.2     1  UNL1        0.4048
      2 O          63.8978   92.4409    2.0947 O.2     1  UNL1       -0.2262
      3 N          61.4394   92.3925    2.9340 N.am    1  UNL1       -0.2460
      4 C          61.8075   91.3541    3.9520 C.3     1  UNL1        0.0967
      5 C          60.7624   90.8107    4.8807 C.3     1  UNL1        0.0217
      6 C          59.3492   91.3057    4.7913 C.3     1  UNL1        0.0049
      7 C          58.9812   92.3440    3.7733 C.3     1  UNL1        0.0217
      8 C          60.0263   92.8874    2.8446 C.3     1  UNL1        0.0967
      9 C          57.9299   91.2777    5.2758 C.3     1  UNL1        0.0019
     10 C          58.9583   90.3925    5.9152 C.3     1  UNL1        0.0198
     11 O          62.1166   93.9742    0.9873 O.3     1  UNL1       -0.4367
     12 C          61.4412   92.8015   -0.6463 C.3     1  UNL1        0.0490
     13 C          62.5373   93.8049   -0.4425 C.3     1  UNL1        0.1917
     14 C          63.6335   94.8084   -0.2387 C.3     1  UNL1        0.1846
     15 O          64.0542   94.6391   -1.6685 O.3     1  UNL1       -0.3462
     16 C          62.9581   93.6357   -1.8723 C.3     1  UNL1        0.1846
     17 C          59.3263   89.3541    6.9333 C.3     1  UNL1        0.0909
     18 N          60.2305   89.7112    8.0756 N.am    1  UNL1       -0.2888
     19 C          60.6690   88.6530    9.0441 C.2     1  UNL1        0.3045
     20 O          60.2033   87.2378    8.8703 O.2     1  UNL1       -0.2526
     21 N          61.5732   89.0101   10.1864 N.am    1  UNL1       -0.2560
     22 C          62.0920   88.0647   11.2291 C.3     1  UNL1        0.1218
     23 C          62.9568   88.8456   12.1737 C.ar    1  UNL1       -0.0016
     24 C          63.7320   88.4408   13.3924 C.ar    1  UNL1        0.0178
     25 C          64.5229   89.4640   14.1523 C.ar    1  UNL1        0.0986
     26 N          64.5386   90.8921   13.6934 N.ar    1  UNL1       -0.2426
     27 C          63.7634   91.2968   12.4748 C.ar    1  UNL1        0.0960
     28 C          62.9725   90.2736   11.7149 C.ar    1  UNL1        0.0146
     29 C          62.1174   90.3753   10.4867 C.3     1  UNL1        0.1233
     30 H          60.5362   90.6400    8.1897 H       1  UNL1        0.1510
@<TRIPOS>BOND
     1    12    13    1
     2    13    11    1
     3    11     1    1
     4     1     2    2
     5     1     3   am
     6     3     4    1
     7     4     5    1
     8     5     6    1
     9     6     7    1
    10     7     8    1
    11     6     9    1
    12     9    10    1
    13    10    17    1
    14    17    18    1
    15    18    19   am
    16    19    20    2
    17    19    21   am
    18    21    22    1
    19    22    23    1
    20    23    24   ar
    21    24    25   ar
    22    25    26   ar
    23    26    27   ar
    24    27    28   ar
    25    28    29    1
    26    13    14    1
    27    14    15    1
    28    15    16    1
    29    16    13    1
    30     8     3    1
    31    29    21    1
    32    10     6    1
    33    28    23   ar
    34    18    30    1
@<TRIPOS>MOLECULE
*****
 30 34 0 0 0
SMALL
GASTEIGER

@<TRIPOS>ATOM
      1 C          63.9601   84.1063   13.5915 C.2     1  UNL1        0.4048
      2 O          64.6260   84.7420   14.7758 O.2     1  UNL1       -0.2262
      3 N          63.3122   84.9642   12.5454 N.am    1  UNL1       -0.2460
      4 C          63.3303   86.4577   12.6836 C.3     1  UNL1        0.0967
      5 C          62.6825   87.3156   11.6375 C.3     1  UNL1        0.0217
      6 C          62.0166   86.6800   10.4532 C.3     1  UNL1        0.0049
      7 C          61.9985   85.1865   10.3150 C.3     1  UNL1        0.0217
      8 C          62.6464   84.3286   11.3611 C.3     1  UNL1        0.0967
      9 C          61.2581   86.8083    9.1655 C.3     1  UNL1        0.0019
     10 C          61.6530   88.0375    9.9290 C.3     1  UNL1        0.0198
     11 O          63.9420   82.6128   13.4533 O.3     1  UNL1       -0.4367
     12 C          62.3495   82.9026   14.8244 C.3     1  UNL1        0.0490
     13 C          62.7135   81.8395   13.8308 C.3     1  UNL1        0.1917
     14 C          63.0774   80.7763   12.8372 C.3     1  UNL1        0.1846
     15 O          61.8488   80.0029   13.2147 O.3     1  UNL1       -0.3462
     16 C          61.4849   81.0661   14.2083 C.3     1  UNL1        0.1846
     17 C          61.6710   89.5311   10.0673 C.3     1  UNL1        0.0909
     18 N          62.8034   90.2042   10.7846 N.am    1  UNL1       -0.2888
     19 C          62.7865   90.3095   12.2808 C.2     1  UNL1        0.3045
     20 O          61.6373   89.7415   13.0596 O.2     1  UNL1       -0.2526
     21 N          63.9189   90.9826   12.9981 N.am    1  UNL1       -0.2560
     22 C          64.0399   91.1622   14.4824 C.3     1  UNL1        0.1218
     23 C          65.3249   91.8849   14.7588 C.ar    1  UNL1       -0.0016
     24 C          65.9689   92.3343   16.0367 C.ar    1  UNL1        0.0178
     25 C          67.2862   93.0508   16.0012 C.ar    1  UNL1        0.0986
     26 N          67.9594   93.3180   14.6877 N.ar    1  UNL1       -0.2426
     27 C          67.3154   92.8686   13.4097 C.ar    1  UNL1        0.0960
     28 C          65.9982   92.1521   13.4453 C.ar    1  UNL1        0.0146
     29 C          65.1292   91.5944   12.3571 C.3     1  UNL1        0.1233
     30 H          63.5577   90.5770   10.2734 H       1  UNL1        0.1510
@<TRIPOS>BOND
     1    12    13    1
     2    13    11    1
     3    11     1    1
     4     1     2    2
     5     1     3   am
     6     3     4    1
     7     4     5    1
     8     5     6    1
     9     6     7    1
    10     7     8    1
    11     6     9    1
    12     9    10    1
    13    10    17    1
    14    17    18    1
    15    18    19   am
    16    19    20    2
    17    19    21   am
    18    21    22    1
    19    22    23    1
    20    23    24   ar
    21    24    25   ar
    22    25    26   ar
    23    26    27   ar
    24    27    28   ar
    25    28    29    1
    26    13    14    1
    27    14    15    1
    28    15    16    1
    29    16    13    1
    30     8     3    1
    31    29    21    1
    32    10     6    1
    33    28    23   ar
    34    18    30    1
@<TRIPOS>MOLECULE
*****
 30 34 0 0 0
SMALL
GASTEIGER

@<TRIPOS>ATOM
      1 C          63.1387   86.8336   12.4307 C.2     1  UNL1        0.4048
      2 O          63.5295   88.0852   13.1593 O.2     1  UNL1       -0.2262
      3 N          62.2508   86.9142   11.2244 N.am    1  UNL1       -0.2460
      4 C          61.7537   88.2465   10.7468 C.3     1  UNL1        0.0967
      5 C          60.8658   88.3271    9.5405 C.3     1  UNL1        0.0217
      6 C          60.4750   87.0755    8.8119 C.3     1  UNL1        0.0049
      7 C          60.9721   85.7433    9.2895 C.3     1  UNL1        0.0217
      8 C          61.8600   85.6627   10.4958 C.3     1  UNL1        0.0967
      9 C          59.7367   86.3994    7.6948 C.3     1  UNL1        0.0019
     10 C          59.6753   87.8911    7.8397 C.3     1  UNL1        0.0198
     11 O          63.6359   85.5015   12.9084 O.3     1  UNL1       -0.4367
     12 C          64.7975   85.9315   14.6304 C.3     1  UNL1        0.0490
     13 C          63.5481   85.1458   14.3629 C.3     1  UNL1        0.1917
     14 C          62.2987   84.3600   14.0954 C.3     1  UNL1        0.1846
     15 O          62.2109   84.0043   15.5500 O.3     1  UNL1       -0.3462
     16 C          63.4603   84.7901   15.8175 C.3     1  UNL1        0.1846
     17 C          59.1782   89.2234    7.3620 C.3     1  UNL1        0.0909
     18 N          59.9350   89.9711    6.3047 N.am    1  UNL1       -0.2888
     19 C          59.2148   90.9286    5.4022 C.2     1  UNL1        0.3045
     20 O          57.7376   91.1383    5.5572 O.2     1  UNL1       -0.2526
     21 N          59.9716   91.6763    4.3449 N.am    1  UNL1       -0.2560
     22 C          59.3901   92.6610    3.3742 C.3     1  UNL1        0.1218
     23 C          60.5019   93.1640    2.5019 C.ar    1  UNL1       -0.0016
     24 C          60.5230   94.1485    1.3704 C.ar    1  UNL1        0.0178
     25 C          61.8128   94.4591    0.6705 C.ar    1  UNL1        0.0986
     26 N          63.0815   93.7852    1.1021 N.ar    1  UNL1       -0.2426
     27 C          63.0604   92.8007    2.2336 C.ar    1  UNL1        0.0960
     28 C          61.7706   92.4901    2.9335 C.ar    1  UNL1        0.0146
     29 C          61.4429   91.5707    4.0725 C.3     1  UNL1        0.1233
     30 H          60.9046   89.8335    6.2030 H       1  UNL1        0.1510
@<TRIPOS>BOND
     1    12    13    1
     2    13    11    1
     3    11     1    1
     4     1     2    2
     5     1     3   am
     6     3     4    1
     7     4     5    1
     8     5     6    1
     9     6     7    1
    10     7     8    1
    11     6     9    1
    12     9    10    1
    13    10    17    1
    14    17    18    1
    15    18    19   am
    16    19    20    2
    17    19    21   am
    18    21    22    1
    19    22    23    1
    20    23    24   ar
    21    24    25   ar
    22    25    26   ar
    23    26    27   ar
    24    27    28   ar
    25    28    29    1
    26    13    14    1
    27    14    15    1
    28    15    16    1
    29    16    13    1
    30     8     3    1
    31    29    21    1
    32    10     6    1
    33    28    23   ar
    34    18    30    1
@<TRIPOS>MOLECULE
*****
 30 34 0 0 0
SMALL
GASTEIGER

@<TRIPOS>ATOM
      1 C          62.1269   86.4276   11.4634 C.2     1  UNL1        0.4048
      2 O          62.9088   87.4012   12.2947 O.2     1  UNL1       -0.2262
      3 N          61.3559   86.9098   10.2705 N.am    1  UNL1       -0.2460
      4 C          61.3666   88.3656    9.9089 C.3     1  UNL1        0.0967
      5 C          60.5956   88.8478    8.7161 C.3     1  UNL1        0.0217
      6 C          59.8137   87.8742    7.8848 C.3     1  UNL1        0.0049
      7 C          59.8030   86.4185    8.2464 C.3     1  UNL1        0.0217
      8 C          60.5740   85.9363    9.4393 C.3     1  UNL1        0.0967
      9 C          58.9172   87.5905    6.7162 C.3     1  UNL1        0.0019
     10 C          59.3748   88.9930    6.9873 C.3     1  UNL1        0.0198
     11 O          62.1162   84.9719   11.8250 O.3     1  UNL1       -0.4367
     12 C          63.3659   84.3141   13.4079 C.3     1  UNL1        0.0490
     13 C          63.4060   84.2112   11.9120 C.3     1  UNL1        0.1917
     14 C          63.4462   84.1083   10.4161 C.3     1  UNL1        0.1846
     15 O          64.7360   83.3475   10.5030 O.3     1  UNL1       -0.3462
     16 C          64.6958   83.4504   11.9990 C.3     1  UNL1        0.1846
     17 C          59.3856   90.4488    6.6257 C.3     1  UNL1        0.0909
     18 N          60.2837   90.9429    5.5306 N.am    1  UNL1       -0.2888
     19 C          59.7486   91.8770    4.4860 C.2     1  UNL1        0.3045
     20 O          58.3156   92.3171    4.5366 O.2     1  UNL1       -0.2526
     21 N          60.6467   92.3711    3.3909 N.am    1  UNL1       -0.2560
     22 C          60.2553   93.3034    2.2829 C.3     1  UNL1        0.1218
     23 C          61.4606   93.5282    1.4187 C.ar    1  UNL1       -0.0016
     24 C          61.6702   94.3528    0.1834 C.ar    1  UNL1        0.0178
     25 C          63.0161   94.3840   -0.4781 C.ar    1  UNL1        0.0986
     26 N          64.1524   93.5906    0.0958 N.ar    1  UNL1       -0.2426
     27 C          63.9428   92.7660    1.3311 C.ar    1  UNL1        0.0960
     28 C          62.5969   92.7348    1.9926 C.ar    1  UNL1        0.0146
     29 C          62.0939   92.0197    3.2115 C.3     1  UNL1        0.1233
     30 H          61.2242   90.6541    5.4974 H       1  UNL1        0.1510
@<TRIPOS>BOND
     1    12    13    1
     2    13    11    1
     3    11     1    1
     4     1     2    2
     5     1     3   am
     6     3     4    1
     7     4     5    1
     8     5     6    1
     9     6     7    1
    10     7     8    1
    11     6     9    1
    12     9    10    1
    13    10    17    1
    14    17    18    1
    15    18    19   am
    16    19    20    2
    17    19    21   am
    18    21    22    1
    19    22    23    1
    20    23    24   ar
    21    24    25   ar
    22    25    26   ar
    23    26    27   ar
    24    27    28   ar
    25    28    29    1
    26    13    14    1
    27    14    15    1
    28    15    16    1
    29    16    13    1
    30     8     3    1
    31    29    21    1
    32    10     6    1
    33    28    23   ar
    34    18    30    1
@<TRIPOS>MOLECULE
*****
 30 34 0 0 0
SMALL
GASTEIGER

@<TRIPOS>ATOM
      1 C          63.0896   84.4744   12.4511 C.2     1  UNL1        0.4048
      2 O          63.9159   84.7601   13.6700 O.2     1  UNL1       -0.2262
      3 N          62.4795   85.6050   11.6768 N.am    1  UNL1       -0.2460
      4 C          62.6957   87.0212   12.1214 C.3     1  UNL1        0.0967
      5 C          62.0856   88.1518   11.3471 C.3     1  UNL1        0.0217
      6 C          61.2593   87.8661   10.1282 C.3     1  UNL1        0.0049
      7 C          61.0431   86.4499    9.6836 C.3     1  UNL1        0.0217
      8 C          61.6532   85.3194   10.4580 C.3     1  UNL1        0.0967
      9 C          60.4300   88.3539    8.9774 C.3     1  UNL1        0.0019
     10 C          61.0318   89.3365    9.9378 C.3     1  UNL1        0.0198
     11 O          62.8735   83.0582   12.0066 O.3     1  UNL1       -0.4367
     12 C          64.6559   81.9200   12.1719 C.3     1  UNL1        0.0490
     13 C          63.3299   81.9221   12.8732 C.3     1  UNL1        0.1917
     14 C          62.0039   81.9242   13.5744 C.3     1  UNL1        0.1846
     15 O          62.4604   80.7882   14.4410 O.3     1  UNL1       -0.3462
     16 C          63.7864   80.7861   13.7397 C.3     1  UNL1        0.1846
     17 C          61.2480   90.7527   10.3824 C.3     1  UNL1        0.0909
     18 N          62.1847   91.0482   11.5161 N.am    1  UNL1       -0.2888
     19 C          63.6003   91.4554   11.2327 C.2     1  UNL1        0.3045
     20 O          64.0791   91.5672    9.8156 O.2     1  UNL1       -0.2526
     21 N          64.5370   91.7509   12.3664 N.am    1  UNL1       -0.2560
     22 C          65.9724   92.1670   12.2385 C.3     1  UNL1        0.1218
     23 C          66.5254   92.3554   13.6201 C.ar    1  UNL1       -0.0016
     24 C          67.8834   92.7611   14.1110 C.ar    1  UNL1        0.0178
     25 C          68.1478   92.8671   15.5837 C.ar    1  UNL1        0.0986
     26 N          67.0540   92.5675   16.5655 N.ar    1  UNL1       -0.2426
     27 C          65.6960   92.1617   16.0746 C.ar    1  UNL1        0.0960
     28 C          65.4316   92.0557   14.6019 C.ar    1  UNL1        0.0146
     29 C          64.2028   91.6821   13.8271 C.3     1  UNL1        0.1233
     30 H          61.8705   90.9748   12.4462 H       1  UNL1        0.1510
@<TRIPOS>BOND
     1    12    13    1
     2    13    11    1
     3    11     1    1
     4     1     2    2
     5     1     3   am
     6     3     4    1
     7     4     5    1
     8     5     6    1
     9     6     7    1
    10     7     8    1
    11     6     9    1
    12     9    10    1
    13    10    17    1
    14    17    18    1
    15    18    19   am
    16    19    20    2
    17    19    21   am
    18    21    22    1
    19    22    23    1
    20    23    24   ar
    21    24    25   ar
    22    25    26   ar
    23    26    27   ar
    24    27    28   ar
    25    28    29    1
    26    13    14    1
    27    14    15    1
    28    15    16    1
    29    16    13    1
    30     8     3    1
    31    29    21    1
    32    10     6    1
    33    28    23   ar
    34    18    30    1
@<TRIPOS>MOLECULE
*****
 30 34 0 0 0
SMALL
GASTEIGER

@<TRIPOS>ATOM
      1 C          60.4694   93.1197    2.6556 C.2     1  UNL1        0.4048
      2 O          61.9463   93.2152    2.4112 O.2     1  UNL1       -0.2262
      3 N          59.9429   92.2008    3.7179 N.am    1  UNL1       -0.2460
      4 C          60.8934   91.3774    4.5357 C.3     1  UNL1        0.0967
      5 C          60.3669   90.4585    5.5980 C.3     1  UNL1        0.0217
      6 C          58.8900   90.3630    5.8425 C.3     1  UNL1        0.0049
      7 C          57.9396   91.1864    5.0246 C.3     1  UNL1        0.0217
      8 C          58.4661   92.1053    3.9624 C.3     1  UNL1        0.0967
      9 C          57.7333   89.7773    6.5969 C.3     1  UNL1        0.0019
     10 C          59.1347   89.3571    6.9279 C.3     1  UNL1        0.0198
     11 O          59.5191   93.9431    1.8378 O.3     1  UNL1       -0.4367
     12 C          60.1941   95.8897    1.3328 C.3     1  UNL1        0.0490
     13 C          59.9939   94.6079    0.5798 C.3     1  UNL1        0.1917
     14 C          59.7936   93.3262   -0.1731 C.3     1  UNL1        0.1846
     15 O          60.2684   93.9910   -1.4311 O.3     1  UNL1       -0.3462
     16 C          60.4687   95.2728   -0.6781 C.3     1  UNL1        0.1846
     17 C          60.0851   88.5337    7.7457 C.3     1  UNL1        0.0909
     18 N          60.9886   89.1990    8.7413 N.am    1  UNL1       -0.2888
     19 C          61.3966   88.4710    9.9876 C.2     1  UNL1        0.3045
     20 O          60.9012   87.0776   10.2384 O.2     1  UNL1       -0.2526
     21 N          62.3000   89.1363   10.9832 N.am    1  UNL1       -0.2560
     22 C          62.7902   88.5365   12.2676 C.3     1  UNL1        0.1218
     23 C          63.6651   89.5478   12.9474 C.ar    1  UNL1       -0.0016
     24 C          64.4222   89.5115   14.2417 C.ar    1  UNL1        0.0178
     25 C          65.2298   90.7001   14.6717 C.ar    1  UNL1        0.0986
     26 N          65.2803   91.9250   13.8073 N.ar    1  UNL1       -0.2426
     27 C          64.5231   91.9612   12.5129 C.ar    1  UNL1        0.0960
     28 C          63.7155   90.7726   12.0830 C.ar    1  UNL1        0.0146
     29 C          62.8719   90.5183   10.8691 C.3     1  UNL1        0.1233
     30 H          61.3137   90.1136    8.5767 H       1  UNL1        0.1510
@<TRIPOS>BOND
     1    12    13    1
     2    13    11    1
     3    11     1    1
     4     1     2    2
     5     1     3   am
     6     3     4    1
     7     4     5    1
     8     5     6    1
     9     6     7    1
    10     7     8    1
    11     6     9    1
    12     9    10    1
    13    10    17    1
    14    17    18    1
    15    18    19   am
    16    19    20    2
    17    19    21   am
    18    21    22    1
    19    22    23    1
    20    23    24   ar
    21    24    25   ar
    22    25    26   ar
    23    26    27   ar
    24    27    28   ar
    25    28    29    1
    26    13    14    1
    27    14    15    1
    28    15    16    1
    29    16    13    1
    30     8     3    1
    31    29    21    1
    32    10     6    1
    33    28    23   ar
    34    18    30    1
@<TRIPOS>MOLECULE
*****
 30 34 0 0 0
SMALL
GASTEIGER

@<TRIPOS>ATOM
      1 C          73.4346   79.7145    8.7680 C.2     1  UNL1        0.4048
      2 O          73.5802   78.5566    7.8256 O.2     1  UNL1       -0.2262
      3 N          73.2960   79.4695   10.2414 N.am    1  UNL1       -0.2460
      4 C          73.3030   78.0666   10.7723 C.3     1  UNL1        0.0967
      5 C          73.1644   77.8216   12.2457 C.3     1  UNL1        0.0217
      6 C          73.0188   78.9795   13.1881 C.3     1  UNL1        0.0049
      7 C          73.0118   80.3824   12.6571 C.3     1  UNL1        0.0217
      8 C          73.1504   80.6274   11.1838 C.3     1  UNL1        0.0967
      9 C          72.8548   79.5066   14.5828 C.3     1  UNL1        0.0019
     10 C          72.9428   78.0281   14.3452 C.3     1  UNL1        0.0198
     11 O          73.4276   81.1174    8.2371 O.3     1  UNL1       -0.4367
     12 C          71.3443   81.4960    8.1098 C.3     1  UNL1        0.0490
     13 C          72.4841   81.4974    7.1347 C.3     1  UNL1        0.1917
     14 C          73.6239   81.4988    6.1596 C.3     1  UNL1        0.1846
     15 O          72.6803   81.8788    5.0572 O.3     1  UNL1       -0.3462
     16 C          71.5405   81.8774    6.0323 C.3     1  UNL1        0.1846
     17 C          72.9498   76.6252   14.8762 C.3     1  UNL1        0.0909
     18 N          72.4349   75.4999   14.0284 N.am    1  UNL1       -0.2888
     19 C          71.7220   74.3451   14.6673 C.2     1  UNL1        0.3045
     20 O          71.5240   74.3156   16.1538 O.2     1  UNL1       -0.2526
     21 N          71.2071   73.2199   13.8196 N.am    1  UNL1       -0.2560
     22 C          70.4789   72.0053   14.3140 C.3     1  UNL1        0.1218
     23 C          70.1517   71.1463   13.1286 C.ar    1  UNL1       -0.0016
     24 C          69.4428   69.8300   13.0080 C.ar    1  UNL1        0.0178
     25 C          69.2599   69.1974   11.6603 C.ar    1  UNL1        0.0986
     26 N          69.7858   69.8811   10.4332 N.ar    1  UNL1       -0.2426
     27 C          70.4947   71.1975   10.5538 C.ar    1  UNL1        0.0960
     28 C          70.6777   71.8301   11.9015 C.ar    1  UNL1        0.0146
     29 C          71.3299   73.1116   12.3285 C.3     1  UNL1        0.1233
     30 H          72.5649   75.5193   13.0528 H       1  UNL1        0.1510
@<TRIPOS>BOND
     1    12    13    1
     2    13    11    1
     3    11     1    1
     4     1     2    2
     5     1     3   am
     6     3     4    1
     7     4     5    1
     8     5     6    1
     9     6     7    1
    10     7     8    1
    11     6     9    1
    12     9    10    1
    13    10    17    1
    14    17    18    1
    15    18    19   am
    16    19    20    2
    17    19    21   am
    18    21    22    1
    19    22    23    1
    20    23    24   ar
    21    24    25   ar
    22    25    26   ar
    23    26    27   ar
    24    27    28   ar
    25    28    29    1
    26    13    14    1
    27    14    15    1
    28    15    16    1
    29    16    13    1
    30     8     3    1
    31    29    21    1
    32    10     6    1
    33    28    23   ar
    34    18    30    1
