@<TRIPOS>MOLECULE
*****
 24 26 0 0 0
SMALL
GASTEIGER

@<TRIPOS>ATOM
      1 S          63.6336   90.3022   13.6398 S.3     1  UNL1       -0.0834
      2 C          63.1976   89.4090   12.5163 C.ar    1  UNL1        0.1288
      3 C          62.7813   90.0037   11.2037 C.ar    1  UNL1        0.0289
      4 C          62.3454   89.1105   10.0803 C.ar    1  UNL1        0.0230
      5 C          62.3257   87.6226   10.2695 C.ar    1  UNL1        0.1029
      6 N          62.7419   87.0279   11.5821 N.ar    1  UNL1       -0.1475
      7 N          63.1779   87.9211   12.7055 N.ar    1  UNL1       -0.1417
      8 C          61.8897   86.7295    9.1459 C.ar    1  UNL1        0.0194
      9 C          62.8626   85.7667    8.5325 C.ar    1  UNL1        0.0016
     10 C          62.4266   84.8735    7.4089 C.ar    1  UNL1        0.0000
     11 C          61.0177   84.9432    6.8990 C.ar    1  UNL1        0.0000
     12 C          60.0447   85.9060    7.5125 C.ar    1  UNL1        0.0000
     13 C          60.4808   86.7991    8.6360 C.ar    1  UNL1        0.0016
     14 C          64.3588   91.5812   13.3429 C.3     1  UNL1        0.1490
     15 N          66.5063   92.9304   13.9066 N.am    1  UNL1       -0.2362
     16 C          67.4461   93.5124   14.9205 C.3     1  UNL1        0.1220
     17 C          65.2986   92.1633   14.3569 C.2     1  UNL1        0.2422
     18 O          65.0306   91.9781   15.8211 O.2     1  UNL1       -0.2735
     19 C          68.4561   92.3039    9.0397 C.3     1  UNL1        0.0527
     20 C          67.6705   92.8275   10.2053 C.ar    1  UNL1        0.0678
     21 C          66.7029   93.9733   10.1730 C.ar    1  UNL1        0.0528
     22 S          66.1491   94.1512   11.5556 S.2     1  UNL1       -0.0510
     23 C          66.7743   93.1155   12.4424 C.ar    1  UNL1        0.1686
     24 N          67.7146   92.2974   11.6078 N.ar    1  UNL1       -0.2281
@<TRIPOS>BOND
     1    19    20    1
     2    20    21   ar
     3    21    22   ar
     4    22    23   ar
     5    23    15    1
     6    15    16    1
     7    15    17   am
     8    17    18    2
     9    17    14    1
    10    14     1    1
    11     1     2    1
    12     2     3   ar
    13     3     4   ar
    14     4     5   ar
    15     5     8    1
    16     8     9   ar
    17     9    10   ar
    18    10    11   ar
    19    11    12   ar
    20    12    13   ar
    21     5     6   ar
    22     6     7   ar
    23    23    24   ar
    24    24    20   ar
    25     7     2   ar
    26    13     8   ar
@<TRIPOS>MOLECULE
*****
 24 26 0 0 0
SMALL
GASTEIGER

@<TRIPOS>ATOM
      1 S          62.7592   90.4191   11.8222 S.3     1  UNL1       -0.0834
      2 C          62.8005   88.9214   11.8955 C.ar    1  UNL1        0.1288
      3 C          62.2005   88.0997   10.7934 C.ar    1  UNL1        0.0289
      4 C          62.2419   86.6021   10.8667 C.ar    1  UNL1        0.0230
      5 C          62.8832   85.9262   12.0422 C.ar    1  UNL1        0.1029
      6 N          63.4832   86.7479   13.1444 N.ar    1  UNL1       -0.1475
      7 N          63.4419   88.2455   13.0710 N.ar    1  UNL1       -0.1417
      8 C          62.9245   84.4285   12.1155 C.ar    1  UNL1        0.0194
      9 C          62.5082   83.7275   13.3745 C.ar    1  UNL1        0.0016
     10 C          62.5495   82.2298   13.4478 C.ar    1  UNL1        0.0000
     11 C          63.0071   81.4332   12.2621 C.ar    1  UNL1        0.0000
     12 C          63.4235   82.1343   11.0030 C.ar    1  UNL1        0.0000
     13 C          63.3821   83.6319   10.9297 C.ar    1  UNL1        0.0016
     14 C          64.0369   91.2046   11.8033 C.3     1  UNL1        0.1490
     15 N          65.7867   92.6705   13.0441 N.am    1  UNL1       -0.2362
     16 C          66.3429   93.2285   14.3205 C.3     1  UNL1        0.1220
     17 C          64.5932   91.7626   13.0798 C.2     1  UNL1        0.2422
     18 O          63.9560   91.4127   14.3918 O.2     1  UNL1       -0.2735
     19 C          68.8479   92.5030    8.7451 C.3     1  UNL1        0.0527
     20 C          67.8310   92.9434    9.7560 C.ar    1  UNL1        0.0678
     21 C          66.9781   94.1743    9.6700 C.ar    1  UNL1        0.0528
     22 S          66.1085   94.2219   10.8913 S.2     1  UNL1       -0.0510
     23 C          66.4239   93.0204   11.7321 C.ar    1  UNL1        0.1686
     24 N          67.4885   92.2303   11.0304 N.ar    1  UNL1       -0.2281
@<TRIPOS>BOND
     1    19    20    1
     2    20    21   ar
     3    21    22   ar
     4    22    23   ar
     5    23    15    1
     6    15    16    1
     7    15    17   am
     8    17    18    2
     9    17    14    1
    10    14     1    1
    11     1     2    1
    12     2     3   ar
    13     3     4   ar
    14     4     5   ar
    15     5     8    1
    16     8     9   ar
    17     9    10   ar
    18    10    11   ar
    19    11    12   ar
    20    12    13   ar
    21     5     6   ar
    22     6     7   ar
    23    23    24   ar
    24    24    20   ar
    25     7     2   ar
    26    13     8   ar
@<TRIPOS>MOLECULE
*****
 24 26 0 0 0
SMALL
GASTEIGER

@<TRIPOS>ATOM
      1 S          61.5345   87.4962   10.7438 S.3     1  UNL1       -0.0834
      2 C          62.4122   88.5290   11.3864 C.ar    1  UNL1        0.1288
      3 C          62.5922   89.8692   10.7373 C.ar    1  UNL1        0.0289
      4 C          63.4699   90.9020   11.3800 C.ar    1  UNL1        0.0230
      5 C          64.1677   90.5945   12.6717 C.ar    1  UNL1        0.1029
      6 N          63.9878   89.2542   13.3207 N.ar    1  UNL1       -0.1475
      7 N          63.1101   88.2215   12.6781 N.ar    1  UNL1       -0.1417
      8 C          65.0454   91.6273   13.3143 C.ar    1  UNL1        0.0194
      9 C          65.4034   91.5090   14.7661 C.ar    1  UNL1        0.0016
     10 C          66.2811   92.5418   15.4088 C.ar    1  UNL1        0.0000
     11 C          66.8009   93.6929   14.5995 C.ar    1  UNL1        0.0000
     12 C          66.4429   93.8111   13.1476 C.ar    1  UNL1        0.0000
     13 C          65.5652   92.7783   12.5050 C.ar    1  UNL1        0.0016
     14 C          61.5954   86.0695   11.2029 C.3     1  UNL1        0.1490
     15 N          63.3396   84.1535   11.3957 N.am    1  UNL1       -0.2362
     16 C          64.2956   83.1971   10.7469 C.3     1  UNL1        0.1220
     17 C          62.5515   85.1129   10.5540 C.2     1  UNL1        0.2422
     18 O          62.7195   85.1158    9.0635 O.2     1  UNL1       -0.2735
     19 C          63.3676   85.6633   16.4554 C.3     1  UNL1        0.0527
     20 C          63.1844   84.8446   15.2120 C.ar    1  UNL1        0.0678
     21 C          62.6416   83.4477   15.1481 C.ar    1  UNL1        0.0528
     22 S          62.6337   83.0189   13.7107 S.2     1  UNL1       -0.0510
     23 C          63.1716   84.1506   12.8863 C.ar    1  UNL1        0.1686
     24 N          63.5119   85.2790   13.8141 N.ar    1  UNL1       -0.2281
@<TRIPOS>BOND
     1    19    20    1
     2    20    21   ar
     3    21    22   ar
     4    22    23   ar
     5    23    15    1
     6    15    16    1
     7    15    17   am
     8    17    18    2
     9    17    14    1
    10    14     1    1
    11     1     2    1
    12     2     3   ar
    13     3     4   ar
    14     4     5   ar
    15     5     8    1
    16     8     9   ar
    17     9    10   ar
    18    10    11   ar
    19    11    12   ar
    20    12    13   ar
    21     5     6   ar
    22     6     7   ar
    23    23    24   ar
    24    24    20   ar
    25     7     2   ar
    26    13     8   ar
@<TRIPOS>MOLECULE
*****
 24 26 0 0 0
SMALL
GASTEIGER

@<TRIPOS>ATOM
      1 S          61.6492   89.4913   11.1728 S.3     1  UNL1       -0.0834
      2 C          62.8031   90.0580   11.9458 C.ar    1  UNL1        0.1288
      3 C          63.5532   91.2427   11.4131 C.ar    1  UNL1        0.0289
      4 C          64.7070   91.8093   12.1862 C.ar    1  UNL1        0.0230
      5 C          65.1108   91.1911   13.4919 C.ar    1  UNL1        0.1029
      6 N          64.3607   90.0064   14.0246 N.ar    1  UNL1       -0.1475
      7 N          63.2069   89.4398   13.2515 N.ar    1  UNL1       -0.1417
      8 C          66.2646   91.7578   14.2649 C.ar    1  UNL1        0.0194
      9 C          66.0381   92.3498   15.6244 C.ar    1  UNL1        0.0016
     10 C          67.1920   92.9165   16.3974 C.ar    1  UNL1        0.0000
     11 C          68.5724   92.8910   15.8110 C.ar    1  UNL1        0.0000
     12 C          68.7989   92.2989   14.4514 C.ar    1  UNL1        0.0000
     13 C          67.6450   91.7323   13.6785 C.ar    1  UNL1        0.0016
     14 C          61.8552   88.9988    9.7710 C.3     1  UNL1        0.1490
     15 N          60.5257   87.0211    8.7359 N.am    1  UNL1       -0.2362
     16 C          59.3594   86.5154    7.9397 C.3     1  UNL1        0.1220
     17 C          60.6889   88.4929    8.9748 C.2     1  UNL1        0.2422
     18 O          59.6859   89.4590    8.4174 O.2     1  UNL1       -0.2735
     19 C          63.1514   83.8666   12.0579 C.3     1  UNL1        0.0527
     20 C          62.7357   84.6051   10.8202 C.ar    1  UNL1        0.0678
     21 C          63.4089   84.5318    9.4818 C.ar    1  UNL1        0.0528
     22 S          62.6629   85.4280    8.5381 S.2     1  UNL1       -0.0510
     23 C          61.5287   86.0551    9.2933 C.ar    1  UNL1        0.1686
     24 N          61.5737   85.5465   10.7037 N.ar    1  UNL1       -0.2281
@<TRIPOS>BOND
     1    19    20    1
     2    20    21   ar
     3    21    22   ar
     4    22    23   ar
     5    23    15    1
     6    15    16    1
     7    15    17   am
     8    17    18    2
     9    17    14    1
    10    14     1    1
    11     1     2    1
    12     2     3   ar
    13     3     4   ar
    14     4     5   ar
    15     5     8    1
    16     8     9   ar
    17     9    10   ar
    18    10    11   ar
    19    11    12   ar
    20    12    13   ar
    21     5     6   ar
    22     6     7   ar
    23    23    24   ar
    24    24    20   ar
    25     7     2   ar
    26    13     8   ar
@<TRIPOS>MOLECULE
*****
 24 26 0 0 0
SMALL
GASTEIGER

@<TRIPOS>ATOM
      1 S          63.4472   90.4657   13.1583 S.3     1  UNL1       -0.0834
      2 C          63.4591   88.9663   13.2009 C.ar    1  UNL1        0.1288
      3 C          64.1874   88.2530   14.3012 C.ar    1  UNL1        0.0289
      4 C          64.1994   86.7537   14.3438 C.ar    1  UNL1        0.0230
      5 C          63.4830   85.9677   13.2860 C.ar    1  UNL1        0.1029
      6 N          62.7547   86.6809   12.1856 N.ar    1  UNL1       -0.1475
      7 N          62.7428   88.1802   12.1431 N.ar    1  UNL1       -0.1417
      8 C          63.4950   84.4683   13.3286 C.ar    1  UNL1        0.0194
      9 C          62.6655   83.7402   14.3443 C.ar    1  UNL1        0.0016
     10 C          62.6775   82.2408   14.3869 C.ar    1  UNL1        0.0000
     11 C          63.5190   81.4695   13.4137 C.ar    1  UNL1        0.0000
     12 C          64.3485   82.1977   12.3980 C.ar    1  UNL1        0.0000
     13 C          64.3365   83.6970   12.3554 C.ar    1  UNL1        0.0016
     14 C          64.7017   91.2165   12.8234 C.3     1  UNL1        0.1490
     15 N          66.3913   93.0323   13.5969 N.am    1  UNL1       -0.2362
     16 C          67.1886   93.6846   14.6872 C.3     1  UNL1        0.1220
     17 C          65.4991   91.8689   13.9137 C.2     1  UNL1        0.2422
     18 O          65.4041   91.3579   15.3208 O.2     1  UNL1       -0.2735
     19 C          66.2143   96.2151    9.3875 C.3     1  UNL1        0.0527
     20 C          66.4049   95.0063   10.2550 C.ar    1  UNL1        0.0678
     21 C          66.8599   93.6533    9.7943 C.ar    1  UNL1        0.0528
     22 S          66.9102   92.7492   10.9901 S.2     1  UNL1       -0.0510
     23 C          66.4863   93.5434   12.1899 C.ar    1  UNL1        0.1686
     24 N          66.1740   94.9384   11.7355 N.ar    1  UNL1       -0.2281
@<TRIPOS>BOND
     1    19    20    1
     2    20    21   ar
     3    21    22   ar
     4    22    23   ar
     5    23    15    1
     6    15    16    1
     7    15    17   am
     8    17    18    2
     9    17    14    1
    10    14     1    1
    11     1     2    1
    12     2     3   ar
    13     3     4   ar
    14     4     5   ar
    15     5     8    1
    16     8     9   ar
    17     9    10   ar
    18    10    11   ar
    19    11    12   ar
    20    12    13   ar
    21     5     6   ar
    22     6     7   ar
    23    23    24   ar
    24    24    20   ar
    25     7     2   ar
    26    13     8   ar
@<TRIPOS>MOLECULE
*****
 24 26 0 0 0
SMALL
GASTEIGER

@<TRIPOS>ATOM
      1 S          63.9765   90.6823   14.0167 S.3     1  UNL1       -0.0834
      2 C          63.3385   89.8739   12.9260 C.ar    1  UNL1        0.1288
      3 C          63.4605   88.3789   12.9312 C.ar    1  UNL1        0.0289
      4 C          62.8225   87.5706   11.8406 C.ar    1  UNL1        0.0230
      5 C          62.0626   88.2573   10.7447 C.ar    1  UNL1        0.1029
      6 N          61.9406   89.7523   10.7394 N.ar    1  UNL1       -0.1475
      7 N          62.5786   90.5606   11.8301 N.ar    1  UNL1       -0.1417
      8 C          61.4246   87.4489    9.6540 C.ar    1  UNL1        0.0194
      9 C          59.9776   87.6546    9.3164 C.ar    1  UNL1        0.0016
     10 C          59.3397   86.8462    8.2257 C.ar    1  UNL1        0.0000
     11 C          60.1487   85.8321    7.4726 C.ar    1  UNL1        0.0000
     12 C          61.5958   85.6265    7.8102 C.ar    1  UNL1        0.0000
     13 C          62.2337   86.4349    8.9008 C.ar    1  UNL1        0.0016
     14 C          65.4659   90.8574   14.0472 C.3     1  UNL1        0.1490
     15 N          66.7564   93.1114   13.9820 N.am    1  UNL1       -0.2362
     16 C          67.3592   94.2842   14.6968 C.3     1  UNL1        0.1220
     17 C          66.0688   92.0303   14.7620 C.2     1  UNL1        0.2422
     18 O          65.9839   92.1222   16.2568 O.2     1  UNL1       -0.2735
     19 C          68.4239   91.9488    9.1087 C.3     1  UNL1        0.0527
     20 C          67.6077   92.4852   10.2472 C.ar    1  UNL1        0.0678
     21 C          66.3359   93.2713   10.1267 C.ar    1  UNL1        0.0528
     22 S          65.8622   93.6015   11.5111 S.2     1  UNL1       -0.0510
     23 C          66.8412   93.0195   12.4872 C.ar    1  UNL1        0.1686
     24 N          67.9200   92.3296   11.7061 N.ar    1  UNL1       -0.2281
@<TRIPOS>BOND
     1    19    20    1
     2    20    21   ar
     3    21    22   ar
     4    22    23   ar
     5    23    15    1
     6    15    16    1
     7    15    17   am
     8    17    18    2
     9    17    14    1
    10    14     1    1
    11     1     2    1
    12     2     3   ar
    13     3     4   ar
    14     4     5   ar
    15     5     8    1
    16     8     9   ar
    17     9    10   ar
    18    10    11   ar
    19    11    12   ar
    20    12    13   ar
    21     5     6   ar
    22     6     7   ar
    23    23    24   ar
    24    24    20   ar
    25     7     2   ar
    26    13     8   ar
@<TRIPOS>MOLECULE
*****
 24 26 0 0 0
SMALL
GASTEIGER

@<TRIPOS>ATOM
      1 S          63.5610   89.7611   14.8429 S.3     1  UNL1       -0.0834
      2 C          64.2798   90.6230   13.8476 C.ar    1  UNL1        0.1288
      3 C          65.5786   91.2746   14.2195 C.ar    1  UNL1        0.0289
      4 C          66.2973   92.1365   13.2242 C.ar    1  UNL1        0.0230
      5 C          65.7171   92.3468   11.8570 C.ar    1  UNL1        0.1029
      6 N          64.4183   91.6952   11.4851 N.ar    1  UNL1       -0.1475
      7 N          63.6996   90.8333   12.4804 N.ar    1  UNL1       -0.1417
      8 C          66.4359   93.2087   10.8617 C.ar    1  UNL1        0.0194
      9 C          66.0663   94.6552   10.7171 C.ar    1  UNL1        0.0016
     10 C          66.7851   95.5171    9.7218 C.ar    1  UNL1        0.0000
     11 C          67.8734   94.9324    8.8711 C.ar    1  UNL1        0.0000
     12 C          68.2430   93.4858    9.0158 C.ar    1  UNL1        0.0000
     13 C          67.5242   92.6240   10.0110 C.ar    1  UNL1        0.0016
     14 C          63.9704   88.3303   15.0298 C.3     1  UNL1        0.1490
     15 N          63.2814   86.0717   16.1135 N.am    1  UNL1       -0.2362
     16 C          62.7831   85.2977   17.2978 C.3     1  UNL1        0.1220
     17 C          63.4721   87.5561   16.2141 C.2     1  UNL1        0.2422
     18 O          63.1646   88.2665   17.4990 O.2     1  UNL1       -0.2735
     19 C          62.9170   84.2493   11.1712 C.3     1  UNL1        0.0527
     20 C          63.4215   84.5237   12.5569 C.ar    1  UNL1        0.0678
     21 C          64.7029   84.0129   13.1460 C.ar    1  UNL1        0.0528
     22 S          64.8064   84.5307   14.5500 S.2     1  UNL1       -0.0510
     23 C          63.5889   85.3614   14.8287 C.ar    1  UNL1        0.1686
     24 N          62.7330   85.3571   13.5968 N.ar    1  UNL1       -0.2281
@<TRIPOS>BOND
     1    19    20    1
     2    20    21   ar
     3    21    22   ar
     4    22    23   ar
     5    23    15    1
     6    15    16    1
     7    15    17   am
     8    17    18    2
     9    17    14    1
    10    14     1    1
    11     1     2    1
    12     2     3   ar
    13     3     4   ar
    14     4     5   ar
    15     5     8    1
    16     8     9   ar
    17     9    10   ar
    18    10    11   ar
    19    11    12   ar
    20    12    13   ar
    21     5     6   ar
    22     6     7   ar
    23    23    24   ar
    24    24    20   ar
    25     7     2   ar
    26    13     8   ar
@<TRIPOS>MOLECULE
*****
 24 26 0 0 0
SMALL
GASTEIGER

@<TRIPOS>ATOM
      1 S          62.8956   90.1716   13.3110 S.3     1  UNL1       -0.0834
      2 C          62.6348   89.2260   12.1761 C.ar    1  UNL1        0.1288
      3 C          62.8143   87.7499   12.3734 C.ar    1  UNL1        0.0289
      4 C          62.5534   86.8044   11.2385 C.ar    1  UNL1        0.0230
      5 C          62.1130   87.3350    9.9064 C.ar    1  UNL1        0.1029
      6 N          61.9335   88.8111    9.7092 N.ar    1  UNL1       -0.1475
      7 N          62.1944   89.7566   10.8440 N.ar    1  UNL1       -0.1417
      8 C          61.8521   86.3894    8.7715 C.ar    1  UNL1        0.0194
      9 C          60.4715   86.2694    8.1976 C.ar    1  UNL1        0.0016
     10 C          60.2106   85.3238    7.0627 C.ar    1  UNL1        0.0000
     11 C          61.3304   84.4983    6.5018 C.ar    1  UNL1        0.0000
     12 C          62.7111   84.6183    7.0758 C.ar    1  UNL1        0.0000
     13 C          62.9719   85.5639    8.2107 C.ar    1  UNL1        0.0016
     14 C          63.8917   89.8117   14.3732 C.3     1  UNL1        0.1490
     15 N          65.0678   91.7824   15.5910 N.am    1  UNL1       -0.2362
     16 C          65.2220   92.6551   16.8012 C.3     1  UNL1        0.1220
     17 C          64.0459   90.6844   15.5834 C.2     1  UNL1        0.2422
     18 O          63.1782   90.4591   16.7861 O.2     1  UNL1       -0.2735
     19 C          66.6937   93.1473   10.7563 C.3     1  UNL1        0.0527
     20 C          66.6829   92.6351   12.1661 C.ar    1  UNL1        0.0678
     21 C          67.8587   92.0738   12.9093 C.ar    1  UNL1        0.0528
     22 S          67.3968   91.6861   14.2827 S.2     1  UNL1       -0.0510
     23 C          65.9355   92.0077   14.3884 C.ar    1  UNL1        0.1686
     24 N          65.4943   92.5943   13.0802 N.ar    1  UNL1       -0.2281
@<TRIPOS>BOND
     1    19    20    1
     2    20    21   ar
     3    21    22   ar
     4    22    23   ar
     5    23    15    1
     6    15    16    1
     7    15    17   am
     8    17    18    2
     9    17    14    1
    10    14     1    1
    11     1     2    1
    12     2     3   ar
    13     3     4   ar
    14     4     5   ar
    15     5     8    1
    16     8     9   ar
    17     9    10   ar
    18    10    11   ar
    19    11    12   ar
    20    12    13   ar
    21     5     6   ar
    22     6     7   ar
    23    23    24   ar
    24    24    20   ar
    25     7     2   ar
    26    13     8   ar
@<TRIPOS>MOLECULE
*****
 24 26 0 0 0
SMALL
GASTEIGER

@<TRIPOS>ATOM
      1 S          63.4764   90.0806   13.7004 S.3     1  UNL1       -0.0834
      2 C          63.4614   88.5966   13.4824 C.ar    1  UNL1        0.1288
      3 C          64.1592   87.6891   14.4515 C.ar    1  UNL1        0.0289
      4 C          64.1442   86.2051   14.2335 C.ar    1  UNL1        0.0230
      5 C          63.4312   85.6287   13.0463 C.ar    1  UNL1        0.1029
      6 N          62.7333   86.5362   12.0771 N.ar    1  UNL1       -0.1475
      7 N          62.7484   88.0202   12.2952 N.ar    1  UNL1       -0.1417
      8 C          63.4162   84.1446   12.8283 C.ar    1  UNL1        0.0194
      9 C          63.5900   83.2139   13.9916 C.ar    1  UNL1        0.0016
     10 C          63.5749   81.7298   13.7736 C.ar    1  UNL1        0.0000
     11 C          63.3861   81.1766   12.3922 C.ar    1  UNL1        0.0000
     12 C          63.2122   82.1075   11.2288 C.ar    1  UNL1        0.0000
     13 C          63.2273   83.5914   11.4469 C.ar    1  UNL1        0.0016
     14 C          64.7293   90.8639   13.4422 C.3     1  UNL1        0.1490
     15 N          66.0138   92.6347   12.0407 N.am    1  UNL1       -0.2362
     16 C          66.1269   93.4843   10.8097 C.3     1  UNL1        0.1220
     17 C          64.8423   91.7136   12.2112 C.2     1  UNL1        0.2422
     18 O          63.7839   91.6421   11.1508 O.2     1  UNL1       -0.2735
     19 C          68.7779   94.1284   16.2844 C.3     1  UNL1        0.0527
     20 C          68.3429   93.3928   15.0518 C.ar    1  UNL1        0.0678
     21 C          69.0595   92.2396   14.4141 C.ar    1  UNL1        0.0528
     22 S          68.2743   91.8153   13.2086 S.2     1  UNL1       -0.0510
     23 C          67.0723   92.7062   13.1011 C.ar    1  UNL1        0.1686
     24 N          67.1147   93.6811   14.2402 N.ar    1  UNL1       -0.2281
@<TRIPOS>BOND
     1    19    20    1
     2    20    21   ar
     3    21    22   ar
     4    22    23   ar
     5    23    15    1
     6    15    16    1
     7    15    17   am
     8    17    18    2
     9    17    14    1
    10    14     1    1
    11     1     2    1
    12     2     3   ar
    13     3     4   ar
    14     4     5   ar
    15     5     8    1
    16     8     9   ar
    17     9    10   ar
    18    10    11   ar
    19    11    12   ar
    20    12    13   ar
    21     5     6   ar
    22     6     7   ar
    23    23    24   ar
    24    24    20   ar
    25     7     2   ar
    26    13     8   ar
