@<TRIPOS>MOLECULE
*****
 34 37 0 0 0
SMALL
GASTEIGER

@<TRIPOS>ATOM
      1 N          62.9196   86.4223   14.4283 N.am    1  UNL1       -0.2533
      2 C          63.4943   87.5907   13.6837 C.2     1  UNL1        0.3092
      3 O          63.8884   87.4423   12.2439 O.2     1  UNL1       -0.2521
      4 N          63.6750   88.9077   14.3787 N.am    1  UNL1       -0.2680
      5 H          62.6610   86.5198   15.3732 H       1  UNL1        0.1578
      6 H          63.4164   89.0052   15.3236 H       1  UNL1        0.1564
      7 C          64.2497   90.0761   13.6340 C.ar    1  UNL1        0.0517
      8 C          65.4305   90.8138   14.1921 C.ar    1  UNL1        0.0162
      9 C          66.0052   91.9822   13.4474 C.ar    1  UNL1        0.0188
     10 C          65.3992   92.4129   12.1447 C.ar    1  UNL1        0.0656
     11 C          64.2184   91.6752   11.5866 C.ar    1  UNL1        0.0188
     12 C          63.6437   90.5068   12.3313 C.ar    1  UNL1        0.0162
     13 N          65.9739   93.5813   11.4001 N.ar    1  UNL1       -0.2868
     14 C          66.1676   94.9654   11.9451 C.ar    1  UNL1        0.1825
     15 N          66.7692   95.8103   10.8615 N.ar    1  UNL1       -0.2280
     16 C          66.9473   94.9484    9.6468 C.ar    1  UNL1        0.0786
     17 C          67.5170   95.3871    8.3303 C.3     1  UNL1        0.0538
     18 C          66.4558   93.5709    9.9796 C.ar    1  UNL1        0.0962
     19 N          62.1920   84.9058   12.3509 N.ar    1  UNL1       -0.2162
     20 N          62.1885   83.4339   12.0619 N.ar    1  UNL1       -0.1683
     21 C          62.7333   82.7238   13.2657 C.ar    1  UNL1        0.0810
     22 C          63.0735   83.7569   14.2987 C.ar    1  UNL1        0.0509
     23 C          62.7389   85.1054   13.7333 C.ar    1  UNL1        0.1380
     24 C          60.3429   89.2346    8.6304 C.3     1  UNL1        0.0310
     25 C          60.8052   88.1524    9.5606 C.ar    1  UNL1       -0.0218
     26 C          60.2812   88.0960   10.9649 C.ar    1  UNL1       -0.0027
     27 C          60.7435   87.0138   11.8950 C.ar    1  UNL1        0.0189
     28 C          61.7297   85.9880   11.4208 C.ar    1  UNL1        0.0842
     29 C          62.2537   86.0444   10.0164 C.ar    1  UNL1        0.0189
     30 C          61.7914   87.1266    9.0863 C.ar    1  UNL1       -0.0027
     31 C          62.9073   81.2411   13.4110 C.3     1  UNL1        0.0372
     32 C          61.5623   81.1476   14.0684 C.3     1  UNL1        0.0060
     33 C          64.2523   81.3345   12.7536 C.3     1  UNL1        0.0060
     34 C          63.0813   79.7583   13.5563 C.3     1  UNL1        0.0060
@<TRIPOS>BOND
     1    24    25    1
     2    25    26   ar
     3    26    27   ar
     4    27    28   ar
     5    28    19    1
     6    19    20   ar
     7    20    21   ar
     8    21    31    1
     9    31    32    1
    10    31    33    1
    11    31    34    1
    12    21    22   ar
    13    22    23   ar
    14    23     1    1
    15     1     2   am
    16     2     3    2
    17     2     4   am
    18     4     7    1
    19     7     8   ar
    20     8     9   ar
    21     9    10   ar
    22    10    13    1
    23    13    14   ar
    24    14    15   ar
    25    15    16   ar
    26    16    17    1
    27    16    18   ar
    28    10    11   ar
    29    11    12   ar
    30    28    29   ar
    31    29    30   ar
    32    30    25   ar
    33    23    19   ar
    34    12     7   ar
    35    18    13   ar
    36     1     5    1
    37     4     6    1
@<TRIPOS>MOLECULE
*****
 34 37 0 0 0
SMALL
GASTEIGER

@<TRIPOS>ATOM
      1 N          63.8184   89.4233   15.6825 N.am    1  UNL1       -0.2533
      2 C          63.7824   88.0981   14.9809 C.2     1  UNL1        0.3092
      3 O          64.5518   87.9022   13.7082 O.2     1  UNL1       -0.2521
      4 N          62.9770   86.9687   15.5517 N.am    1  UNL1       -0.2680
      5 H          63.3134   89.5519   16.5178 H       1  UNL1        0.1578
      6 H          62.4720   87.0973   16.3870 H       1  UNL1        0.1564
      7 C          62.9410   85.6435   14.8500 C.ar    1  UNL1        0.0517
      8 C          63.4803   85.5182   13.4559 C.ar    1  UNL1        0.0162
      9 C          63.4443   84.1930   12.7541 C.ar    1  UNL1        0.0188
     10 C          62.8691   82.9930   13.4464 C.ar    1  UNL1        0.0656
     11 C          62.3299   83.1184   14.8405 C.ar    1  UNL1        0.0188
     12 C          62.3659   84.4436   15.5422 C.ar    1  UNL1        0.0162
     13 N          62.8332   81.6678   12.7446 N.ar    1  UNL1       -0.2868
     14 C          62.6268   80.3315   13.3940 C.ar    1  UNL1        0.1825
     15 N          62.6633   79.2841   12.3210 N.ar    1  UNL1       -0.2280
     16 C          62.8923   79.9730   11.0084 C.ar    1  UNL1        0.0786
     17 C          62.9978   79.3057    9.6691 C.3     1  UNL1        0.0538
     18 C          62.9973   81.4463   11.2702 C.ar    1  UNL1        0.0962
     19 N          64.4422   91.1677   13.7557 N.ar    1  UNL1       -0.2162
     20 N          65.4583   92.2604   13.6026 N.ar    1  UNL1       -0.1683
     21 C          66.2679   92.3207   14.8639 C.ar    1  UNL1        0.0810
     22 C          65.7521   91.2652   15.7966 C.ar    1  UNL1        0.0509
     23 C          64.6237   90.5527   15.1117 C.ar    1  UNL1        0.1380
     24 C          60.3670   89.5426    9.6628 C.3     1  UNL1        0.0310
     25 C          61.3858   89.9489   10.6860 C.ar    1  UNL1       -0.0218
     26 C          61.1227   89.7082   12.1430 C.ar    1  UNL1       -0.0027
     27 C          62.1415   90.1145   13.1662 C.ar    1  UNL1        0.0189
     28 C          63.4234   90.7615   12.7325 C.ar    1  UNL1        0.0842
     29 C          63.6865   91.0021   11.2755 C.ar    1  UNL1        0.0189
     30 C          62.6677   90.5958   10.2523 C.ar    1  UNL1       -0.0027
     31 C          67.3953   93.2698   15.1435 C.3     1  UNL1        0.0372
     32 C          67.9517   92.3112   16.1541 C.3     1  UNL1        0.0060
     33 C          66.8389   94.2285   14.1329 C.3     1  UNL1        0.0060
     34 C          68.5227   94.2189   15.4231 C.3     1  UNL1        0.0060
@<TRIPOS>BOND
     1    24    25    1
     2    25    26   ar
     3    26    27   ar
     4    27    28   ar
     5    28    19    1
     6    19    20   ar
     7    20    21   ar
     8    21    31    1
     9    31    32    1
    10    31    33    1
    11    31    34    1
    12    21    22   ar
    13    22    23   ar
    14    23     1    1
    15     1     2   am
    16     2     3    2
    17     2     4   am
    18     4     7    1
    19     7     8   ar
    20     8     9   ar
    21     9    10   ar
    22    10    13    1
    23    13    14   ar
    24    14    15   ar
    25    15    16   ar
    26    16    17    1
    27    16    18   ar
    28    10    11   ar
    29    11    12   ar
    30    28    29   ar
    31    29    30   ar
    32    30    25   ar
    33    23    19   ar
    34    12     7   ar
    35    18    13   ar
    36     1     5    1
    37     4     6    1
@<TRIPOS>MOLECULE
*****
 34 37 0 0 0
SMALL
GASTEIGER

@<TRIPOS>ATOM
      1 N          60.7557   88.9761   11.0101 N.am    1  UNL1       -0.2533
      2 C          62.0304   89.6384   11.4418 C.2     1  UNL1        0.3092
      3 O          62.9906   90.1591   10.4137 O.2     1  UNL1       -0.2521
      4 N          62.3450   89.7800   12.9016 N.am    1  UNL1       -0.2680
      5 H          60.1255   88.6344   11.6849 H       1  UNL1        0.1578
      6 H          61.7148   89.4383   13.5764 H       1  UNL1        0.1564
      7 C          63.6198   90.4423   13.3332 C.ar    1  UNL1        0.0517
      8 C          64.1304   91.6418   12.5912 C.ar    1  UNL1        0.0162
      9 C          65.4051   92.3041   13.0229 C.ar    1  UNL1        0.0188
     10 C          66.1693   91.7670   14.1965 C.ar    1  UNL1        0.0656
     11 C          65.6587   90.5675   14.9385 C.ar    1  UNL1        0.0188
     12 C          64.3840   89.9052   14.5069 C.ar    1  UNL1        0.0162
     13 N          67.4441   92.4293   14.6282 N.ar    1  UNL1       -0.2868
     14 C          68.8297   92.0266   14.2181 C.ar    1  UNL1        0.1825
     15 N          69.7990   92.9590   14.8822 N.ar    1  UNL1       -0.2280
     16 C          69.0126   93.9379   15.7026 C.ar    1  UNL1        0.0786
     17 C          69.5816   95.0492   16.5341 C.3     1  UNL1        0.0538
     18 C          67.5571   93.6106   15.5456 C.ar    1  UNL1        0.0962
     19 N          60.8310   87.6827    8.6721 N.ar    1  UNL1       -0.2162
     20 N          60.3122   87.9562    7.2915 N.ar    1  UNL1       -0.1683
     21 C          59.6015   89.2769    7.3165 C.ar    1  UNL1        0.0810
     22 C          59.6811   89.8197    8.7126 C.ar    1  UNL1        0.0509
     23 C          60.4410   88.8345    9.5503 C.ar    1  UNL1        0.1380
     24 C          63.9235   82.8334   10.3811 C.3     1  UNL1        0.0310
     25 C          63.1504   84.0457    9.9539 C.ar    1  UNL1       -0.0218
     26 C          63.2438   84.5346    8.5389 C.ar    1  UNL1       -0.0027
     27 C          62.4707   85.7469    8.1116 C.ar    1  UNL1        0.0189
     28 C          61.6042   86.4704    9.0993 C.ar    1  UNL1        0.0842
     29 C          61.5107   85.9815   10.5143 C.ar    1  UNL1        0.0189
     30 C          62.2839   84.7692   10.9416 C.ar    1  UNL1       -0.0027
     31 C          58.9292   89.9386    6.1503 C.3     1  UNL1        0.0372
     32 C          57.6092   89.3826    6.5957 C.3     1  UNL1        0.0060
     33 C          60.2492   90.4947    5.7049 C.3     1  UNL1        0.0060
     34 C          58.2569   90.6003    4.9840 C.3     1  UNL1        0.0060
@<TRIPOS>BOND
     1    24    25    1
     2    25    26   ar
     3    26    27   ar
     4    27    28   ar
     5    28    19    1
     6    19    20   ar
     7    20    21   ar
     8    21    31    1
     9    31    32    1
    10    31    33    1
    11    31    34    1
    12    21    22   ar
    13    22    23   ar
    14    23     1    1
    15     1     2   am
    16     2     3    2
    17     2     4   am
    18     4     7    1
    19     7     8   ar
    20     8     9   ar
    21     9    10   ar
    22    10    13    1
    23    13    14   ar
    24    14    15   ar
    25    15    16   ar
    26    16    17    1
    27    16    18   ar
    28    10    11   ar
    29    11    12   ar
    30    28    29   ar
    31    29    30   ar
    32    30    25   ar
    33    23    19   ar
    34    12     7   ar
    35    18    13   ar
    36     1     5    1
    37     4     6    1
@<TRIPOS>MOLECULE
*****
 34 37 0 0 0
SMALL
GASTEIGER

@<TRIPOS>ATOM
      1 N          61.4345   85.7870   11.8270 N.am    1  UNL1       -0.2533
      2 C          62.3262   86.9931   11.8349 C.2     1  UNL1        0.3092
      3 O          63.7898   86.8418   12.1265 O.2     1  UNL1       -0.2521
      4 N          61.7544   88.3505   11.5513 N.am    1  UNL1       -0.2680
      5 H          60.4738   85.8863   11.6357 H       1  UNL1        0.1578
      6 H          60.7938   88.4499   11.3600 H       1  UNL1        0.1564
      7 C          62.6462   89.5566   11.5592 C.ar    1  UNL1        0.0517
      8 C          62.8110   90.3757   10.3135 C.ar    1  UNL1        0.0162
      9 C          63.7028   91.5818   10.3214 C.ar    1  UNL1        0.0188
     10 C          64.4298   91.9688   11.5750 C.ar    1  UNL1        0.0656
     11 C          64.2650   91.1497   12.8208 C.ar    1  UNL1        0.0188
     12 C          63.3732   89.9436   12.8128 C.ar    1  UNL1        0.0162
     13 N          65.3216   93.1749   11.5829 N.ar    1  UNL1       -0.2868
     14 C          66.0936   93.6928   12.7601 C.ar    1  UNL1        0.1825
     15 N          66.8471   94.9128   12.3198 N.ar    1  UNL1       -0.2280
     16 C          66.5408   95.1488   10.8705 C.ar    1  UNL1        0.0786
     17 C          67.0823   96.2633   10.0250 C.3     1  UNL1        0.0538
     18 C          65.5980   94.0747   10.4150 C.ar    1  UNL1        0.0962
     19 N          62.5850   83.9720   13.4166 N.ar    1  UNL1       -0.2162
     20 N          63.0360   82.5510   13.2512 N.ar    1  UNL1       -0.1683
     21 C          62.7361   82.1304   11.8429 C.ar    1  UNL1        0.0810
     22 C          62.0996   83.2915   11.1380 C.ar    1  UNL1        0.0509
     23 C          62.0062   84.4296   12.1107 C.ar    1  UNL1        0.1380
     24 C          63.0194   87.2497   18.4234 C.3     1  UNL1        0.0310
     25 C          62.9108   86.4303   17.1717 C.ar    1  UNL1       -0.0218
     26 C          64.0609   86.3731   16.2105 C.ar    1  UNL1       -0.0027
     27 C          63.9523   85.5537   14.9589 C.ar    1  UNL1        0.0189
     28 C          62.6936   84.7914   14.6683 C.ar    1  UNL1        0.0842
     29 C          61.5434   84.8486   15.6295 C.ar    1  UNL1        0.0189
     30 C          61.6520   85.6680   16.8812 C.ar    1  UNL1       -0.0027
     31 C          63.0223   80.7850   11.2446 C.3     1  UNL1        0.0372
     32 C          63.5236   81.4471    9.9955 C.3     1  UNL1        0.0060
     33 C          62.5211   80.1229   12.4937 C.3     1  UNL1        0.0060
     34 C          63.3086   79.4396   10.6463 C.3     1  UNL1        0.0060
@<TRIPOS>BOND
     1    24    25    1
     2    25    26   ar
     3    26    27   ar
     4    27    28   ar
     5    28    19    1
     6    19    20   ar
     7    20    21   ar
     8    21    31    1
     9    31    32    1
    10    31    33    1
    11    31    34    1
    12    21    22   ar
    13    22    23   ar
    14    23     1    1
    15     1     2   am
    16     2     3    2
    17     2     4   am
    18     4     7    1
    19     7     8   ar
    20     8     9   ar
    21     9    10   ar
    22    10    13    1
    23    13    14   ar
    24    14    15   ar
    25    15    16   ar
    26    16    17    1
    27    16    18   ar
    28    10    11   ar
    29    11    12   ar
    30    28    29   ar
    31    29    30   ar
    32    30    25   ar
    33    23    19   ar
    34    12     7   ar
    35    18    13   ar
    36     1     5    1
    37     4     6    1
@<TRIPOS>MOLECULE
*****
 34 37 0 0 0
SMALL
GASTEIGER

@<TRIPOS>ATOM
      1 N          61.9115   85.5947   11.9483 N.am    1  UNL1       -0.2533
      2 C          62.8102   86.7017   12.4137 C.2     1  UNL1        0.3092
      3 O          64.0154   86.3880   13.2498 O.2     1  UNL1       -0.2521
      4 N          62.5038   88.1225   12.0430 N.am    1  UNL1       -0.2680
      5 H          61.1205   85.8006   11.3995 H       1  UNL1        0.1578
      6 H          61.7128   88.3285   11.4943 H       1  UNL1        0.1564
      7 C          63.4026   89.2296   12.5085 C.ar    1  UNL1        0.0517
      8 C          63.5811   90.4561   11.6636 C.ar    1  UNL1        0.0162
      9 C          64.4799   91.5631   12.1291 C.ar    1  UNL1        0.0188
     10 C          65.2002   91.4437   13.4393 C.ar    1  UNL1        0.0656
     11 C          65.0217   90.2172   14.2842 C.ar    1  UNL1        0.0188
     12 C          64.1229   89.1102   13.8188 C.ar    1  UNL1        0.0162
     13 N          66.0990   92.5507   13.9048 N.ar    1  UNL1       -0.2868
     14 C          66.1849   93.9254   13.3108 C.ar    1  UNL1        0.1825
     15 N          67.2087   94.7017   14.0848 N.ar    1  UNL1       -0.2280
     16 C          67.7555   93.8068   15.1572 C.ar    1  UNL1        0.0786
     17 C          68.8041   94.1764   16.1642 C.3     1  UNL1        0.0538
     18 C          67.0697   92.4774   15.0460 C.ar    1  UNL1        0.0962
     19 N          62.5291   83.6696   13.6969 N.ar    1  UNL1       -0.2162
     20 N          62.7704   82.1919   13.6062 N.ar    1  UNL1       -0.1683
     21 C          62.6082   81.7829   12.1722 C.ar    1  UNL1        0.0810
     22 C          62.2667   83.0078   11.3766 C.ar    1  UNL1        0.0509
     23 C          62.2179   84.1738   12.3189 C.ar    1  UNL1        0.1380
     24 C          62.7673   86.9818   18.6941 C.3     1  UNL1        0.0310
     25 C          62.7078   86.1538   17.4448 C.ar    1  UNL1       -0.0218
     26 C          61.3899   85.9017   16.7742 C.ar    1  UNL1       -0.0027
     27 C          61.3304   85.0736   15.5249 C.ar    1  UNL1        0.0189
     28 C          62.5887   84.4977   14.9462 C.ar    1  UNL1        0.0842
     29 C          63.9065   84.7498   15.6168 C.ar    1  UNL1        0.0189
     30 C          63.9660   85.5778   16.8661 C.ar    1  UNL1       -0.0027
     31 C          62.7608   80.3930   11.6291 C.3     1  UNL1        0.0372
     32 C          63.1416   80.9571   10.2924 C.3     1  UNL1        0.0060
     33 C          62.3799   79.8289   12.9658 C.3     1  UNL1        0.0060
     34 C          62.9133   79.0031   11.0861 C.3     1  UNL1        0.0060
@<TRIPOS>BOND
     1    24    25    1
     2    25    26   ar
     3    26    27   ar
     4    27    28   ar
     5    28    19    1
     6    19    20   ar
     7    20    21   ar
     8    21    31    1
     9    31    32    1
    10    31    33    1
    11    31    34    1
    12    21    22   ar
    13    22    23   ar
    14    23     1    1
    15     1     2   am
    16     2     3    2
    17     2     4   am
    18     4     7    1
    19     7     8   ar
    20     8     9   ar
    21     9    10   ar
    22    10    13    1
    23    13    14   ar
    24    14    15   ar
    25    15    16   ar
    26    16    17    1
    27    16    18   ar
    28    10    11   ar
    29    11    12   ar
    30    28    29   ar
    31    29    30   ar
    32    30    25   ar
    33    23    19   ar
    34    12     7   ar
    35    18    13   ar
    36     1     5    1
    37     4     6    1
@<TRIPOS>MOLECULE
*****
 34 37 0 0 0
SMALL
GASTEIGER

@<TRIPOS>ATOM
      1 N          64.6061   90.9514   13.9282 N.am    1  UNL1       -0.2533
      2 C          64.3056   89.4922   13.7547 C.2     1  UNL1        0.3092
      3 O          64.1964   88.9075   12.3776 O.2     1  UNL1       -0.2521
      4 N          64.1142   88.6175   14.9581 N.am    1  UNL1       -0.2680
      5 H          64.6777   91.3351   14.8320 H       1  UNL1        0.1578
      6 H          64.1859   89.0012   15.8620 H       1  UNL1        0.1564
      7 C          63.8137   87.1582   14.7845 C.ar    1  UNL1        0.0517
      8 C          63.5050   86.6130   13.4216 C.ar    1  UNL1        0.0162
      9 C          63.2045   85.1537   13.2480 C.ar    1  UNL1        0.0188
     10 C          63.2127   84.2396   14.4372 C.ar    1  UNL1        0.0656
     11 C          63.5215   84.7848   15.8001 C.ar    1  UNL1        0.0188
     12 C          63.8220   86.2440   15.9737 C.ar    1  UNL1        0.0162
     13 N          62.9122   82.7803   14.2636 N.ar    1  UNL1       -0.2868
     14 C          63.9200   81.6944   14.0284 C.ar    1  UNL1        0.1825
     15 N          63.1818   80.3937   13.9141 N.ar    1  UNL1       -0.2280
     16 C          61.7178   80.6756   14.0786 C.ar    1  UNL1        0.0786
     17 C          60.6141   79.6607   14.0349 C.3     1  UNL1        0.0538
     18 C          61.5511   82.1506   14.2946 C.ar    1  UNL1        0.0962
     19 N          63.9922   91.7745   11.4603 N.ar    1  UNL1       -0.2162
     20 N          64.5247   92.8225   10.5286 N.ar    1  UNL1       -0.1683
     21 C          65.6591   93.5219   11.2173 C.ar    1  UNL1        0.0810
     22 C          65.8276   92.9060   12.5746 C.ar    1  UNL1        0.0509
     23 C          64.7974   91.8261   12.7248 C.ar    1  UNL1        0.1380
     24 C          59.4403   88.0331   10.3280 C.3     1  UNL1        0.0310
     25 C          60.5783   88.9684   10.6111 C.ar    1  UNL1       -0.0218
     26 C          61.7918   88.9617    9.7294 C.ar    1  UNL1       -0.0027
     27 C          62.9297   89.8971   10.0125 C.ar    1  UNL1        0.0189
     28 C          62.8542   90.8392   11.1772 C.ar    1  UNL1        0.0842
     29 C          61.6408   90.8459   12.0589 C.ar    1  UNL1        0.0189
     30 C          60.5028   89.9105   11.7758 C.ar    1  UNL1       -0.0027
     31 C          66.4806   94.6405   10.6484 C.3     1  UNL1        0.0372
     32 C          66.0349   95.5362   11.7661 C.3     1  UNL1        0.0060
     33 C          66.9264   93.7449    9.5308 C.3     1  UNL1        0.0060
     34 C          67.3022   95.7592   10.0796 C.3     1  UNL1        0.0060
@<TRIPOS>BOND
     1    24    25    1
     2    25    26   ar
     3    26    27   ar
     4    27    28   ar
     5    28    19    1
     6    19    20   ar
     7    20    21   ar
     8    21    31    1
     9    31    32    1
    10    31    33    1
    11    31    34    1
    12    21    22   ar
    13    22    23   ar
    14    23     1    1
    15     1     2   am
    16     2     3    2
    17     2     4   am
    18     4     7    1
    19     7     8   ar
    20     8     9   ar
    21     9    10   ar
    22    10    13    1
    23    13    14   ar
    24    14    15   ar
    25    15    16   ar
    26    16    17    1
    27    16    18   ar
    28    10    11   ar
    29    11    12   ar
    30    28    29   ar
    31    29    30   ar
    32    30    25   ar
    33    23    19   ar
    34    12     7   ar
    35    18    13   ar
    36     1     5    1
    37     4     6    1
@<TRIPOS>MOLECULE
*****
 34 37 0 0 0
SMALL
GASTEIGER

@<TRIPOS>ATOM
      1 N          63.5186   88.3042   14.9995 N.am    1  UNL1       -0.2533
      2 C          63.5070   87.0652   14.1543 C.2     1  UNL1        0.3092
      3 O          64.0152   87.1146   12.7438 O.2     1  UNL1       -0.2521
      4 N          62.9873   85.7765   14.7194 N.am    1  UNL1       -0.2680
      5 H          63.1850   88.2717   15.9252 H       1  UNL1        0.1578
      6 H          62.6538   85.7440   15.6451 H       1  UNL1        0.1564
      7 C          62.9758   84.5375   13.8741 C.ar    1  UNL1        0.0517
      8 C          63.1434   84.6424   12.3872 C.ar    1  UNL1        0.0162
      9 C          63.1319   83.4033   11.5419 C.ar    1  UNL1        0.0188
     10 C          62.9528   82.0593   12.1834 C.ar    1  UNL1        0.0656
     11 C          62.7853   81.9544   13.6703 C.ar    1  UNL1        0.0188
     12 C          62.7968   83.1935   14.5156 C.ar    1  UNL1        0.0162
     13 N          62.9413   80.8202   11.3381 N.ar    1  UNL1       -0.2868
     14 C          63.0794   80.7700    9.8453 C.ar    1  UNL1        0.1825
     15 N          63.0131   79.3326    9.4217 N.ar    1  UNL1       -0.2280
     16 C          62.8342   78.4944   10.6528 C.ar    1  UNL1        0.0786
     17 C          62.7197   76.9993   10.6925 C.3     1  UNL1        0.0538
     18 C          62.7898   79.4139   11.8372 C.ar    1  UNL1        0.0962
     19 N          63.5737   90.2518   13.1695 N.ar    1  UNL1       -0.2162
     20 N          64.3621   91.5150   12.9885 N.ar    1  UNL1       -0.1683
     21 C          65.3139   91.6367   14.1414 C.ar    1  UNL1        0.0810
     22 C          65.1137   90.4488   15.0351 C.ar    1  UNL1        0.0509
     23 C          64.0383   89.5929   14.4344 C.ar    1  UNL1        0.1380
     24 C          59.3106   88.1959    9.4818 C.3     1  UNL1        0.0310
     25 C          60.3764   88.7099   10.4038 C.ar    1  UNL1       -0.0218
     26 C          61.8133   88.6902    9.9739 C.ar    1  UNL1       -0.0027
     27 C          62.8791   89.2042   10.8958 C.ar    1  UNL1        0.0189
     28 C          62.5080   89.7378   12.2476 C.ar    1  UNL1        0.0842
     29 C          61.0710   89.7575   12.6775 C.ar    1  UNL1        0.0189
     30 C          60.0053   89.2435   11.7556 C.ar    1  UNL1       -0.0027
     31 C          66.2938   92.7508   14.3619 C.3     1  UNL1        0.0372
     32 C          66.2637   93.0675   12.8961 C.3     1  UNL1        0.0060
     33 C          66.3239   92.4342   15.8278 C.3     1  UNL1        0.0060
     34 C          67.2737   93.8649   14.5825 C.3     1  UNL1        0.0060
@<TRIPOS>BOND
     1    24    25    1
     2    25    26   ar
     3    26    27   ar
     4    27    28   ar
     5    28    19    1
     6    19    20   ar
     7    20    21   ar
     8    21    31    1
     9    31    32    1
    10    31    33    1
    11    31    34    1
    12    21    22   ar
    13    22    23   ar
    14    23     1    1
    15     1     2   am
    16     2     3    2
    17     2     4   am
    18     4     7    1
    19     7     8   ar
    20     8     9   ar
    21     9    10   ar
    22    10    13    1
    23    13    14   ar
    24    14    15   ar
    25    15    16   ar
    26    16    17    1
    27    16    18   ar
    28    10    11   ar
    29    11    12   ar
    30    28    29   ar
    31    29    30   ar
    32    30    25   ar
    33    23    19   ar
    34    12     7   ar
    35    18    13   ar
    36     1     5    1
    37     4     6    1
@<TRIPOS>MOLECULE
*****
 34 37 0 0 0
SMALL
GASTEIGER

@<TRIPOS>ATOM
      1 N          60.8325   88.2179   10.0449 N.am    1  UNL1       -0.2533
      2 C          60.7840   89.1644    8.8823 C.2     1  UNL1        0.3092
      3 O          61.7090   90.3444    8.8367 O.2     1  UNL1       -0.2521
      4 N          59.8105   88.9311    7.7653 N.am    1  UNL1       -0.2680
      5 H          60.2253   87.4435   10.0748 H       1  UNL1        0.1578
      6 H          59.2033   88.1567    7.7951 H       1  UNL1        0.1564
      7 C          59.7620   89.8777    6.6027 C.ar    1  UNL1        0.0517
      8 C          58.4516   90.4627    6.1659 C.ar    1  UNL1        0.0162
      9 C          58.4032   91.4093    5.0033 C.ar    1  UNL1        0.0188
     10 C          59.6650   91.7710    4.2775 C.ar    1  UNL1        0.0656
     11 C          60.9754   91.1861    4.7143 C.ar    1  UNL1        0.0188
     12 C          61.0238   90.2395    5.8769 C.ar    1  UNL1        0.0162
     13 N          59.6166   92.7176    3.1150 N.ar    1  UNL1       -0.2868
     14 C          60.1101   94.1341    3.1101 C.ar    1  UNL1        0.1825
     15 N          59.8646   94.7059    1.7453 N.ar    1  UNL1       -0.2280
     16 C          59.2194   93.6428    0.9066 C.ar    1  UNL1        0.0786
     17 C          58.8009   93.7837   -0.5269 C.3     1  UNL1        0.0538
     18 C          59.0660   92.4139    1.7531 C.ar    1  UNL1        0.0962
     19 N          62.6915   87.4163   11.7903 N.ar    1  UNL1       -0.2162
     20 N          63.4977   88.0859   12.8634 N.ar    1  UNL1       -0.1683
     21 C          63.1104   89.5346   12.8984 C.ar    1  UNL1        0.0810
     22 C          62.0648   89.7604   11.8468 C.ar    1  UNL1        0.0509
     23 C          61.8060   88.4512   11.1620 C.ar    1  UNL1        0.1380
     24 C          62.9616   81.6166   10.2765 C.3     1  UNL1        0.0310
     25 C          62.8941   83.0665   10.6549 C.ar    1  UNL1       -0.0218
     26 C          62.9592   84.1229    9.5921 C.ar    1  UNL1       -0.0027
     27 C          62.8917   85.5728    9.9705 C.ar    1  UNL1        0.0189
     28 C          62.7591   85.9664   11.4118 C.ar    1  UNL1        0.0842
     29 C          62.6940   84.9100   12.4747 C.ar    1  UNL1        0.0189
     30 C          62.7615   83.4601   12.0963 C.ar    1  UNL1       -0.0027
     31 C          63.6703   90.5748   13.8227 C.3     1  UNL1        0.0372
     32 C          64.0364   91.4259   12.6430 C.3     1  UNL1        0.0060
     33 C          63.3042   89.7237   15.0024 C.3     1  UNL1        0.0060
     34 C          64.2303   91.6151   14.7470 C.3     1  UNL1        0.0060
@<TRIPOS>BOND
     1    24    25    1
     2    25    26   ar
     3    26    27   ar
     4    27    28   ar
     5    28    19    1
     6    19    20   ar
     7    20    21   ar
     8    21    31    1
     9    31    32    1
    10    31    33    1
    11    31    34    1
    12    21    22   ar
    13    22    23   ar
    14    23     1    1
    15     1     2   am
    16     2     3    2
    17     2     4   am
    18     4     7    1
    19     7     8   ar
    20     8     9   ar
    21     9    10   ar
    22    10    13    1
    23    13    14   ar
    24    14    15   ar
    25    15    16   ar
    26    16    17    1
    27    16    18   ar
    28    10    11   ar
    29    11    12   ar
    30    28    29   ar
    31    29    30   ar
    32    30    25   ar
    33    23    19   ar
    34    12     7   ar
    35    18    13   ar
    36     1     5    1
    37     4     6    1
@<TRIPOS>MOLECULE
*****
 34 37 0 0 0
SMALL
GASTEIGER

@<TRIPOS>ATOM
      1 N          61.6315   87.9179   12.1767 N.am    1  UNL1       -0.2533
      2 C          62.8317   88.6331   12.7224 C.2     1  UNL1        0.3092
      3 O          64.1805   87.9782   12.6758 O.2     1  UNL1       -0.2521
      4 N          62.6833   90.0032   13.3147 N.am    1  UNL1       -0.2680
      5 H          60.7463   88.3477   12.2073 H       1  UNL1        0.1578
      6 H          61.7982   90.4330   13.3453 H       1  UNL1        0.1564
      7 C          63.8836   90.7184   13.8604 C.ar    1  UNL1        0.0517
      8 C          64.0491   90.8831   15.3421 C.ar    1  UNL1        0.0162
      9 C          65.2494   91.5982   15.8878 C.ar    1  UNL1        0.0188
     10 C          66.2843   92.1487   14.9519 C.ar    1  UNL1        0.0656
     11 C          66.1188   91.9840   13.4702 C.ar    1  UNL1        0.0188
     12 C          64.9185   91.2688   12.9245 C.ar    1  UNL1        0.0162
     13 N          67.4846   92.8639   15.4976 N.ar    1  UNL1       -0.2868
     14 C          68.5585   92.2586   16.3523 C.ar    1  UNL1        0.1825
     15 N          69.5593   93.3305   16.6673 N.ar    1  UNL1       -0.2280
     16 C          69.1040   94.5983   16.0074 C.ar    1  UNL1        0.0786
     17 C          69.8074   95.9220   16.0610 C.3     1  UNL1        0.0538
     18 C          67.8217   94.3099   15.2844 C.ar    1  UNL1        0.0962
     19 N          61.3403   86.1278   10.2130 N.ar    1  UNL1       -0.2162
     20 N          61.6826   84.6776   10.0405 N.ar    1  UNL1       -0.1683
     21 C          62.3337   84.2014   11.3052 C.ar    1  UNL1        0.0810
     22 C          62.3938   85.3572   12.2593 C.ar    1  UNL1        0.0509
     23 C          61.7798   86.5478   11.5843 C.ar    1  UNL1        0.1380
     24 C          58.6801   89.6331    6.1342 C.3     1  UNL1        0.0310
     25 C          59.3451   88.7567    7.1539 C.ar    1  UNL1       -0.0218
     26 C          59.2211   87.2651    7.0562 C.ar    1  UNL1       -0.0027
     27 C          59.8861   86.3888    8.0759 C.ar    1  UNL1        0.0189
     28 C          60.6752   87.0041    9.1933 C.ar    1  UNL1        0.0842
     29 C          60.7993   88.4958    9.2910 C.ar    1  UNL1        0.0189
     30 C          60.1342   89.3721    8.2713 C.ar    1  UNL1       -0.0027
     31 C          62.8364   82.8130   11.5693 C.3     1  UNL1        0.0372
     32 C          63.4568   82.7780   10.2040 C.3     1  UNL1        0.0060
     33 C          62.2160   82.8481   12.9345 C.3     1  UNL1        0.0060
     34 C          63.3391   81.4247   11.8333 C.3     1  UNL1        0.0060
@<TRIPOS>BOND
     1    24    25    1
     2    25    26   ar
     3    26    27   ar
     4    27    28   ar
     5    28    19    1
     6    19    20   ar
     7    20    21   ar
     8    21    31    1
     9    31    32    1
    10    31    33    1
    11    31    34    1
    12    21    22   ar
    13    22    23   ar
    14    23     1    1
    15     1     2   am
    16     2     3    2
    17     2     4   am
    18     4     7    1
    19     7     8   ar
    20     8     9   ar
    21     9    10   ar
    22    10    13    1
    23    13    14   ar
    24    14    15   ar
    25    15    16   ar
    26    16    17    1
    27    16    18   ar
    28    10    11   ar
    29    11    12   ar
    30    28    29   ar
    31    29    30   ar
    32    30    25   ar
    33    23    19   ar
    34    12     7   ar
    35    18    13   ar
    36     1     5    1
    37     4     6    1
