@<TRIPOS>MOLECULE
*****
 33 36 0 0 0
SMALL
GASTEIGER

@<TRIPOS>ATOM
      1 C          63.7072   89.6413   13.0158 C.3     1  UNL1        0.1871
      2 C          64.4231   89.7650   14.3282 C.3     1  UNL1        0.0437
      3 C          64.8778   91.0435   14.9674 C.3     1  UNL1        0.0040
      4 C          64.6044   88.3856   14.8890 C.3     1  UNL1        0.0041
      5 C          64.0006   87.4096   13.9233 C.3     1  UNL1        0.0065
      6 C          63.8840   85.9143   13.9486 C.3     1  UNL1        0.0335
      7 C          64.4385   85.1382   15.1063 C.3     1  UNL1        0.0071
      8 C          64.3219   83.6430   15.1316 C.3     1  UNL1        0.0226
      9 C          63.6508   82.9237   13.9991 C.2     1  UNL1       -0.0354
     10 C          63.5343   81.4285   14.0244 C.2     1  UNL1        0.0339
     11 C          62.8632   80.7093   12.8919 C.2     1  UNL1        0.1948
     12 O          62.7467   79.2140   12.9172 O.2     1  UNL1       -0.2866
     13 C          62.3087   81.4854   11.7342 C.2     1  UNL1        0.0378
     14 C          62.4253   82.9806   11.7090 C.2     1  UNL1       -0.0171
     15 C          63.0963   83.6998   12.8414 C.3     1  UNL1        0.0638
     16 C          62.5418   84.4758   11.6837 C.3     1  UNL1        0.0112
     17 C          63.2129   85.1951   12.8162 C.3     1  UNL1        0.1644
     18 F          63.3295   86.6903   12.7909 F       1  UNL1       -0.2369
     19 C          62.6584   85.9711   11.6584 C.3     1  UNL1        0.1409
     20 O          61.9873   85.2519   10.5260 O.3     1  UNL1       -0.3817
     21 C          62.7750   87.4664   11.6332 C.3     1  UNL1        0.0358
     22 C          63.4461   88.1856   12.7656 C.3     1  UNL1        0.0426
     23 C          62.8336   88.7761   11.5302 C.3     1  UNL1        0.0040
     24 H          61.9969   84.2974   10.6983 H       1  UNL1        0.2104
     25 C          63.8238   91.1366   12.9906 C.2     1  UNL1        0.2028
     26 O          63.4802   91.7079   13.5739 O.2     1  UNL1       -0.2911
     27 C          64.5889   91.8107   11.8906 C.3     1  UNL1        0.1626
     28 CL         65.5072   92.9538   12.2072 Cl      1  UNL1       -0.1051
     29 O          63.0157   89.8302   11.6982 O.3     1  UNL1       -0.4486
     30 C          61.5187   89.9087   11.6412 C.2     1  UNL1        0.3171
     31 O          60.9499   89.7231   12.2943 O.2     1  UNL1       -0.2501
     32 C          60.1561   89.3248    9.5077 C.3     1  UNL1        0.0122
     33 C          60.8379   90.3401   10.3762 C.3     1  UNL1        0.1096
@<TRIPOS>BOND
     1    32    33    1
     2    33    30    1
     3    30    31    2
     4    30    29    1
     5     1    29    1
     6     1    25    1
     7    25    26    2
     8    25    27    1
     9    27    28    1
    10     1     2    1
    11     2     3    1
    12     2     4    1
    13     5     4    1
    14     5     6    1
    15     6     7    1
    16     7     8    1
    17     8     9    1
    18     9    10    2
    19    10    11    1
    20    11    12    2
    21    11    13    1
    22    13    14    2
    23    14    15    1
    24    15    16    1
    25    15    17    1
    26    17    18    1
    27    17    19    1
    28    19    20    1
    29    19    21    1
    30    21    22    1
    31    22    23    1
    32    22     1    1
    33    22     5    1
    34    17     6    1
    35    15     9    1
    36    20    24    1
@<TRIPOS>MOLECULE
*****
 33 36 0 0 0
SMALL
GASTEIGER

@<TRIPOS>ATOM
      1 C          63.8119   89.7866   12.8931 C.3     1  UNL1        0.1871
      2 C          63.2117   89.9898   11.5335 C.3     1  UNL1        0.0437
      3 C          63.0532   91.3034   10.8270 C.3     1  UNL1        0.0040
      4 C          62.7978   88.6486   11.0046 C.3     1  UNL1        0.0041
      5 C          63.1422   87.6166   12.0371 C.3     1  UNL1        0.0065
      6 C          62.9661   86.1272   12.0654 C.3     1  UNL1        0.0335
      7 C          62.3393   85.4238   10.8982 C.3     1  UNL1        0.0071
      8 C          62.1632   83.9345   10.9264 C.3     1  UNL1        0.0226
      9 C          62.6138   83.1485   12.1219 C.2     1  UNL1       -0.0354
     10 C          62.4377   81.6592   12.1502 C.2     1  UNL1        0.0339
     11 C          62.8883   80.8732   13.3456 C.2     1  UNL1        0.1948
     12 O          62.7122   79.3838   13.3739 O.2     1  UNL1       -0.2866
     13 C          63.5151   81.5766   14.5129 C.2     1  UNL1        0.0378
     14 C          63.6912   83.0659   14.4846 C.2     1  UNL1       -0.0171
     15 C          63.2406   83.8519   13.2892 C.3     1  UNL1        0.0638
     16 C          63.8674   84.5552   14.4564 C.3     1  UNL1        0.0112
     17 C          63.4167   85.3413   13.2609 C.3     1  UNL1        0.1644
     18 F          63.5928   86.8306   13.2326 F       1  UNL1       -0.2369
     19 C          64.0435   86.0447   14.4281 C.3     1  UNL1        0.1409
     20 O          64.4941   85.2586   15.6236 O.3     1  UNL1       -0.3817
     21 C          64.2196   87.5340   14.3999 C.3     1  UNL1        0.0358
     22 C          63.7690   88.3200   13.2044 C.3     1  UNL1        0.0426
     23 C          64.4117   88.8336   14.4586 C.3     1  UNL1        0.0040
     24 H          64.3086   84.3174   15.4804 H       1  UNL1        0.2104
     25 C          63.9880   91.2761   12.8648 C.2     1  UNL1        0.2028
     26 O          63.3525   91.8893   12.9332 O.2     1  UNL1       -0.2911
     27 C          65.3578   91.8664   12.7068 C.3     1  UNL1        0.1626
     28 CL         65.5209   93.2352   12.1153 Cl      1  UNL1       -0.1051
     29 O          64.4489   89.8949   14.2468 O.3     1  UNL1       -0.4486
     30 C          63.6072   90.2043   15.4493 C.2     1  UNL1        0.3171
     31 O          62.8518   89.8079   15.6875 O.2     1  UNL1       -0.2501
     32 C          65.2559   92.0978   16.1172 C.3     1  UNL1        0.0122
     33 C          64.0244   91.2888   16.3979 C.3     1  UNL1        0.1096
@<TRIPOS>BOND
     1    32    33    1
     2    33    30    1
     3    30    31    2
     4    30    29    1
     5     1    29    1
     6     1    25    1
     7    25    26    2
     8    25    27    1
     9    27    28    1
    10     1     2    1
    11     2     3    1
    12     2     4    1
    13     5     4    1
    14     5     6    1
    15     6     7    1
    16     7     8    1
    17     8     9    1
    18     9    10    2
    19    10    11    1
    20    11    12    2
    21    11    13    1
    22    13    14    2
    23    14    15    1
    24    15    16    1
    25    15    17    1
    26    17    18    1
    27    17    19    1
    28    19    20    1
    29    19    21    1
    30    21    22    1
    31    22    23    1
    32    22     1    1
    33    22     5    1
    34    17     6    1
    35    15     9    1
    36    20    24    1
@<TRIPOS>MOLECULE
*****
 33 36 0 0 0
SMALL
GASTEIGER

@<TRIPOS>ATOM
      1 C          61.2681   88.2839   10.3286 C.3     1  UNL1        0.1871
      2 C          61.0822   89.2168    9.1687 C.3     1  UNL1        0.0437
      3 C          60.1697   88.9978    7.9985 C.3     1  UNL1        0.0040
      4 C          61.9692   90.4070    9.3845 C.3     1  UNL1        0.0041
      5 C          62.7031   90.2098   10.6777 C.3     1  UNL1        0.0065
      6 C          63.7100   91.0556   11.3994 C.3     1  UNL1        0.0335
      7 C          64.1434   92.3678   10.8160 C.3     1  UNL1        0.0071
      8 C          65.1503   93.2135   11.5377 C.3     1  UNL1        0.0226
      9 C          65.7239   92.7471   12.8428 C.2     1  UNL1       -0.0354
     10 C          66.7308   93.5928   13.5645 C.2     1  UNL1        0.0339
     11 C          67.3044   93.1263   14.8696 C.2     1  UNL1        0.1948
     12 O          68.3113   93.9721   15.5914 O.2     1  UNL1       -0.2866
     13 C          66.8710   91.8142   15.4531 C.2     1  UNL1        0.0378
     14 C          65.8641   90.9684   14.7314 C.2     1  UNL1       -0.0171
     15 C          65.2906   91.4349   13.4263 C.3     1  UNL1        0.0638
     16 C          64.8572   90.1227   14.0098 C.3     1  UNL1        0.0112
     17 C          64.2836   90.5891   12.7046 C.3     1  UNL1        0.1644
     18 F          63.2767   89.7434   11.9829 F       1  UNL1       -0.2369
     19 C          63.8503   89.2770   13.2880 C.3     1  UNL1        0.1409
     20 O          64.4239   88.8105   14.5932 O.3     1  UNL1       -0.3817
     21 C          62.8434   88.4312   12.5664 C.3     1  UNL1        0.0358
     22 C          62.2698   88.8977   11.2612 C.3     1  UNL1        0.0426
     23 C          61.9677   87.6287   12.0019 C.3     1  UNL1        0.0040
     24 H          65.0545   89.4696   14.9232 H       1  UNL1        0.2104
     25 C          60.2611   87.4382    9.6068 C.2     1  UNL1        0.2028
     26 O          59.3863   87.4172    9.7442 O.2     1  UNL1       -0.2911
     27 C          60.7070   86.5021    8.5229 C.3     1  UNL1        0.1626
     28 CL         59.6985   85.9016    7.5888 Cl      1  UNL1       -0.1051
     29 O          61.2434   87.1743   11.3375 O.3     1  UNL1       -0.4486
     30 C          62.2223   86.0426   11.2320 C.2     1  UNL1        0.3171
     31 O          62.7531   85.8590   10.5470 O.2     1  UNL1       -0.2501
     32 C          62.7615   83.6518   12.0942 C.3     1  UNL1        0.0122
     33 C          62.3759   85.0753   12.3681 C.3     1  UNL1        0.1096
@<TRIPOS>BOND
     1    32    33    1
     2    33    30    1
     3    30    31    2
     4    30    29    1
     5     1    29    1
     6     1    25    1
     7    25    26    2
     8    25    27    1
     9    27    28    1
    10     1     2    1
    11     2     3    1
    12     2     4    1
    13     5     4    1
    14     5     6    1
    15     6     7    1
    16     7     8    1
    17     8     9    1
    18     9    10    2
    19    10    11    1
    20    11    12    2
    21    11    13    1
    22    13    14    2
    23    14    15    1
    24    15    16    1
    25    15    17    1
    26    17    18    1
    27    17    19    1
    28    19    20    1
    29    19    21    1
    30    21    22    1
    31    22    23    1
    32    22     1    1
    33    22     5    1
    34    17     6    1
    35    15     9    1
    36    20    24    1
@<TRIPOS>MOLECULE
*****
 33 36 0 0 0
SMALL
GASTEIGER

@<TRIPOS>ATOM
      1 C          63.7200   85.0289   13.2278 C.3     1  UNL1        0.1871
      2 C          64.1820   86.2059   14.0347 C.3     1  UNL1        0.0437
      3 C          65.0085   86.1479   15.2851 C.3     1  UNL1        0.0040
      4 C          63.6723   87.4512   13.3717 C.3     1  UNL1        0.0041
      5 C          62.8955   87.0438   12.1550 C.3     1  UNL1        0.0065
      6 C          62.1649   87.8426   11.1166 C.3     1  UNL1        0.0335
      7 C          62.1355   89.3396   11.2055 C.3     1  UNL1        0.0071
      8 C          61.4050   90.1384   10.1671 C.3     1  UNL1        0.0226
      9 C          60.7040   89.4401    9.0397 C.2     1  UNL1       -0.0354
     10 C          59.9735   90.2389    8.0013 C.2     1  UNL1        0.0339
     11 C          59.2725   89.5407    6.8740 C.2     1  UNL1        0.1948
     12 O          58.5420   90.3395    5.8355 O.2     1  UNL1       -0.2866
     13 C          59.3019   88.0436    6.7850 C.2     1  UNL1        0.0378
     14 C          60.0324   87.2448    7.8234 C.2     1  UNL1       -0.0171
     15 C          60.7334   87.9431    8.9508 C.3     1  UNL1        0.0638
     16 C          60.7629   86.4460    8.8618 C.3     1  UNL1        0.0112
     17 C          61.4639   87.1443    9.9892 C.3     1  UNL1        0.1644
     18 F          62.1944   86.3455   11.0276 F       1  UNL1       -0.2369
     19 C          61.4934   85.6472    9.9003 C.3     1  UNL1        0.1409
     20 O          60.7923   84.9489    8.7728 O.3     1  UNL1       -0.3817
     21 C          62.2239   84.8484   10.9387 C.3     1  UNL1        0.0358
     22 C          62.9249   85.5467   12.0661 C.3     1  UNL1        0.0426
     23 C          62.8390   84.0723   11.8039 C.3     1  UNL1        0.0040
     24 H          60.3737   85.6066    8.1956 H       1  UNL1        0.2104
     25 C          64.4505   84.2301   14.2662 C.2     1  UNL1        0.2028
     26 O          65.3263   84.1974   14.3949 O.2     1  UNL1       -0.2911
     27 C          63.6844   83.3696   15.2266 C.3     1  UNL1        0.1626
     28 CL         62.3043   83.7707   15.6565 Cl      1  UNL1       -0.1051
     29 O          63.4108   83.6849   12.6379 O.3     1  UNL1       -0.4486
     30 C          64.2584   83.1406   11.5263 C.2     1  UNL1        0.3171
     31 O          65.0953   83.3607   11.3373 O.2     1  UNL1       -0.2501
     32 C          63.1210   80.8372   11.1386 C.3     1  UNL1        0.0122
     33 C          63.6984   82.1092   10.5922 C.3     1  UNL1        0.1096
@<TRIPOS>BOND
     1    32    33    1
     2    33    30    1
     3    30    31    2
     4    30    29    1
     5     1    29    1
     6     1    25    1
     7    25    26    2
     8    25    27    1
     9    27    28    1
    10     1     2    1
    11     2     3    1
    12     2     4    1
    13     5     4    1
    14     5     6    1
    15     6     7    1
    16     7     8    1
    17     8     9    1
    18     9    10    2
    19    10    11    1
    20    11    12    2
    21    11    13    1
    22    13    14    2
    23    14    15    1
    24    15    16    1
    25    15    17    1
    26    17    18    1
    27    17    19    1
    28    19    20    1
    29    19    21    1
    30    21    22    1
    31    22    23    1
    32    22     1    1
    33    22     5    1
    34    17     6    1
    35    15     9    1
    36    20    24    1
@<TRIPOS>MOLECULE
*****
 33 36 0 0 0
SMALL
GASTEIGER

@<TRIPOS>ATOM
      1 C          61.9320   87.6832   10.4008 C.3     1  UNL1        0.1871
      2 C          61.9703   86.5735   11.4093 C.3     1  UNL1        0.0437
      3 C          61.2978   85.2391   11.2779 C.3     1  UNL1        0.0040
      4 C          62.7991   87.0324   12.5722 C.3     1  UNL1        0.0041
      5 C          63.2730   88.4257   12.2825 C.3     1  UNL1        0.0065
      6 C          64.1234   89.3802   13.0673 C.3     1  UNL1        0.0335
      7 C          64.6593   88.9780   14.4094 C.3     1  UNL1        0.0071
      8 C          65.5096   89.9324   15.1942 C.3     1  UNL1        0.0226
      9 C          65.8240   91.2892   14.6370 C.2     1  UNL1       -0.0354
     10 C          66.6743   92.2436   15.4218 C.2     1  UNL1        0.0339
     11 C          66.9887   93.6003   14.8646 C.2     1  UNL1        0.1948
     12 O          67.8391   94.5548   15.6494 O.2     1  UNL1       -0.2866
     13 C          66.4529   94.0025   13.5225 C.2     1  UNL1        0.0378
     14 C          65.6026   93.0481   12.7377 C.2     1  UNL1       -0.0171
     15 C          65.2881   91.6914   13.2949 C.3     1  UNL1        0.0638
     16 C          64.7522   92.0936   11.9529 C.3     1  UNL1        0.0112
     17 C          64.4378   90.7369   12.5101 C.3     1  UNL1        0.1644
     18 F          63.5875   89.7824   11.7253 F       1  UNL1       -0.2369
     19 C          63.9019   91.1391   11.1681 C.3     1  UNL1        0.1409
     20 O          64.2164   92.4958   10.6109 O.3     1  UNL1       -0.3817
     21 C          63.0516   90.1846   10.3833 C.3     1  UNL1        0.0358
     22 C          62.7371   88.8279   10.9405 C.3     1  UNL1        0.0426
     23 C          62.3001   89.4120    9.6298 C.3     1  UNL1        0.0040
     24 H          64.7721   92.9827   11.2394 H       1  UNL1        0.2104
     25 C          61.0817   86.7287    9.6160 C.2     1  UNL1        0.2028
     26 O          60.2494   86.4846    9.7959 O.2     1  UNL1       -0.2911
     27 C          61.6299   86.0769    8.3813 C.3     1  UNL1        0.1626
     28 CL         63.0652   85.6432    8.3363 Cl      1  UNL1       -0.1051
     29 O          61.7160   88.5934    9.2283 O.3     1  UNL1       -0.4486
     30 C          60.4336   89.3611    9.1010 C.2     1  UNL1        0.3171
     31 O          59.9790   89.7515    9.7534 O.2     1  UNL1       -0.2501
     32 C          59.0340   88.3902    7.1393 C.3     1  UNL1        0.0122
     33 C          59.7903   89.5292    7.7565 C.3     1  UNL1        0.1096
@<TRIPOS>BOND
     1    32    33    1
     2    33    30    1
     3    30    31    2
     4    30    29    1
     5     1    29    1
     6     1    25    1
     7    25    26    2
     8    25    27    1
     9    27    28    1
    10     1     2    1
    11     2     3    1
    12     2     4    1
    13     5     4    1
    14     5     6    1
    15     6     7    1
    16     7     8    1
    17     8     9    1
    18     9    10    2
    19    10    11    1
    20    11    12    2
    21    11    13    1
    22    13    14    2
    23    14    15    1
    24    15    16    1
    25    15    17    1
    26    17    18    1
    27    17    19    1
    28    19    20    1
    29    19    21    1
    30    21    22    1
    31    22    23    1
    32    22     1    1
    33    22     5    1
    34    17     6    1
    35    15     9    1
    36    20    24    1
