@<TRIPOS>MOLECULE
*****
 33 36 0 0 0
SMALL
GASTEIGER

@<TRIPOS>ATOM
      1 C          65.7517   91.8758   13.0569 C.ar    1  UNL1        0.0951
      2 C          65.8814   90.9647   14.2414 C.ar    1  UNL1        0.1454
      3 F          67.1414   90.9673   15.0552 F       1  UNL1       -0.2040
      4 C          64.7510   90.0511   14.6121 C.ar    1  UNL1        0.0312
      5 C          63.4909   90.0485   13.7983 C.ar    1  UNL1        0.0204
      6 C          63.3613   90.9596   12.6137 C.ar    1  UNL1        0.0924
      7 C          64.4917   91.8732   12.2431 C.ar    1  UNL1        0.1598
      8 F          64.3621   92.7844   11.0585 F       1  UNL1       -0.2026
      9 O          67.5804   93.5874   13.7472 O.2     1  UNL1       -0.2864
     10 C          66.8822   92.7895   12.6861 C.2     1  UNL1        0.2016
     11 C          67.3142   92.9053   11.2544 C.ar    1  UNL1        0.0620
     12 C          67.9821   91.8331   10.4455 C.ar    1  UNL1        0.1038
     13 N          68.2349   92.3788    9.0714 N.ar    1  UNL1       -0.2268
     14 C          67.7233   93.7883    9.0310 C.ar    1  UNL1        0.1415
     15 N          67.7021   94.8175    7.9400 N.ar    1  UNL1       -0.3374
     16 C          67.1118   96.1720    8.1982 C.ar    1  UNL1        0.0744
     17 C          66.5428   96.4974    9.5474 C.ar    1  UNL1        0.0300
     18 C          66.5640   95.4683   10.6384 C.ar    1  UNL1        0.0622
     19 CL         65.9950   95.7937   11.9876 Cl      1  UNL1       -0.0821
     20 C          67.1543   94.1137   10.3802 C.ar    1  UNL1        0.0491
     21 H          68.0755   94.6039    7.0544 H       1  UNL1        0.1674
     22 N          62.1012   90.9570   11.7999 N.pl3   1  UNL1       -0.2127
     23 H          61.5197   91.7513   11.7905 H       1  UNL1        0.1738
     24 S          61.7273   89.7442   11.0004 S.O2    1  UNL1        0.0758
     25 O          60.6769   89.3997   12.0144 O.2     1  UNL1       -0.1499
     26 O          62.7776   90.0887    9.9865 O.2     1  UNL1       -0.1499
     27 C          61.3534   88.5314   10.2009 C.ar    1  UNL1        0.1524
     28 C          60.4014   88.6570    9.0485 C.ar    1  UNL1        0.0225
     29 C          60.0274   87.4443    8.2489 C.ar    1  UNL1        0.0015
     30 C          60.6055   86.1059    8.6016 C.ar    1  UNL1        0.0024
     31 C          61.5576   85.9803    9.7540 C.ar    1  UNL1        0.0310
     32 C          61.9315   87.1930   10.5536 C.ar    1  UNL1        0.1589
     33 F          62.8835   87.0673   11.7059 F       1  UNL1       -0.2027
@<TRIPOS>BOND
     1     9    10    2
     2    10     1    1
     3     1     2   ar
     4     2     3    1
     5     2     4   ar
     6     4     5   ar
     7     5     6   ar
     8     6    22    1
     9    22    24    1
    10    24    25    2
    11    24    26    2
    12    24    27    1
    13    27    28   ar
    14    28    29   ar
    15    29    30   ar
    16    30    31   ar
    17    31    32   ar
    18    32    33    1
    19     6     7   ar
    20     7     8    1
    21    10    11    1
    22    11    12   ar
    23    12    13   ar
    24    13    14   ar
    25    14    15   ar
    26    15    16   ar
    27    16    17   ar
    28    17    18   ar
    29    18    19    1
    30    18    20   ar
    31     7     1   ar
    32    20    11   ar
    33    32    27   ar
    34    20    14    1
    35    22    23    1
    36    15    21    1
@<TRIPOS>MOLECULE
*****
 33 36 0 0 0
SMALL
GASTEIGER

@<TRIPOS>ATOM
      1 C          65.7146   91.7464   13.0033 C.ar    1  UNL1        0.0951
      2 C          65.7953   90.9704   14.2845 C.ar    1  UNL1        0.1454
      3 F          67.0530   91.0000   15.1013 F       1  UNL1       -0.2040
      4 C          64.6183   90.1648   14.7486 C.ar    1  UNL1        0.0312
      5 C          63.3605   90.1352   13.9318 C.ar    1  UNL1        0.0204
      6 C          63.2799   90.9112   12.6506 C.ar    1  UNL1        0.0924
      7 C          64.4569   91.7168   12.1865 C.ar    1  UNL1        0.1598
      8 F          64.3763   92.4928   10.9053 F       1  UNL1       -0.2026
      9 O          68.2629   91.9441   12.5375 O.2     1  UNL1       -0.2864
     10 C          66.8917   92.5521   12.5391 C.2     1  UNL1        0.2016
     11 C          66.6975   93.9657   12.0764 C.ar    1  UNL1        0.0620
     12 C          66.2174   95.1107   12.9181 C.ar    1  UNL1        0.1038
     13 N          66.1724   96.3351   12.0527 N.ar    1  UNL1       -0.2268
     14 C          66.6247   95.9467   10.6762 C.ar    1  UNL1        0.1415
     15 N          66.7830   96.7374    9.4114 N.ar    1  UNL1       -0.3374
     16 C          67.2658   96.0636    8.1613 C.ar    1  UNL1        0.0744
     17 C          67.5903   94.5992    8.1759 C.ar    1  UNL1        0.0300
     18 C          67.4320   93.8085    9.4408 C.ar    1  UNL1        0.0622
     19 CL         67.7565   92.3441    9.4554 Cl      1  UNL1       -0.0821
     20 C          66.9492   94.4823   10.6909 C.ar    1  UNL1        0.0491
     21 H          66.5700   97.6985    9.4018 H       1  UNL1        0.1674
     22 N          62.0222   90.8816   11.8338 N.pl3   1  UNL1       -0.2127
     23 H          61.4197   91.6602   11.8292 H       1  UNL1        0.1738
     24 S          61.6824   89.6656   11.0238 S.O2    1  UNL1        0.0758
     25 O          62.7536   90.0237   10.0368 O.2     1  UNL1       -0.1499
     26 O          60.6111   89.3075   12.0109 O.2     1  UNL1       -0.1499
     27 C          61.3425   88.4497   10.2140 C.ar    1  UNL1        0.1524
     28 C          60.3896   88.5589    9.0607 C.ar    1  UNL1        0.0225
     29 C          60.0497   87.3430    8.2508 C.ar    1  UNL1        0.0015
     30 C          60.6627   86.0177    8.5941 C.ar    1  UNL1        0.0024
     31 C          61.6156   85.9085    9.7474 C.ar    1  UNL1        0.0310
     32 C          61.9556   87.1244   10.5573 C.ar    1  UNL1        0.1589
     33 F          62.9085   87.0151   11.7106 F       1  UNL1       -0.2027
@<TRIPOS>BOND
     1     9    10    2
     2    10     1    1
     3     1     2   ar
     4     2     3    1
     5     2     4   ar
     6     4     5   ar
     7     5     6   ar
     8     6    22    1
     9    22    24    1
    10    24    25    2
    11    24    26    2
    12    24    27    1
    13    27    28   ar
    14    28    29   ar
    15    29    30   ar
    16    30    31   ar
    17    31    32   ar
    18    32    33    1
    19     6     7   ar
    20     7     8    1
    21    10    11    1
    22    11    12   ar
    23    12    13   ar
    24    13    14   ar
    25    14    15   ar
    26    15    16   ar
    27    16    17   ar
    28    17    18   ar
    29    18    19    1
    30    18    20   ar
    31     7     1   ar
    32    20    11   ar
    33    32    27   ar
    34    20    14    1
    35    22    23    1
    36    15    21    1
@<TRIPOS>MOLECULE
*****
 33 36 0 0 0
SMALL
GASTEIGER

@<TRIPOS>ATOM
      1 C          61.6149   88.5294   10.5867 C.ar    1  UNL1        0.0951
      2 C          60.5932   88.6573    9.4959 C.ar    1  UNL1        0.1454
      3 F          59.7433   89.8899    9.4052 F       1  UNL1       -0.2040
      4 C          60.4215   87.5526    8.4959 C.ar    1  UNL1        0.0312
      5 C          61.2714   86.3199    8.5867 C.ar    1  UNL1        0.0204
      6 C          62.2931   86.1920    9.6775 C.ar    1  UNL1        0.0924
      7 C          62.4648   87.2967   10.6775 C.ar    1  UNL1        0.1598
      8 F          63.4864   87.1689   11.7683 F       1  UNL1       -0.2026
      9 O          60.8429   89.7489   12.7470 O.2     1  UNL1       -0.2864
     10 C          61.7866   89.6341   11.5868 C.2     1  UNL1        0.2016
     11 C          62.9021   90.6241   11.4267 C.ar    1  UNL1        0.0620
     12 C          63.1365   91.5029   10.2339 C.ar    1  UNL1        0.1038
     13 N          64.3584   92.3309   10.5012 N.ar    1  UNL1       -0.2268
     14 C          64.8791   91.9638   11.8592 C.ar    1  UNL1        0.1415
     15 N          66.0566   92.4538   12.6488 N.ar    1  UNL1       -0.3374
     16 C          66.3340   91.8889   14.0104 C.ar    1  UNL1        0.0744
     17 C          65.4340   90.8340   14.5823 C.ar    1  UNL1        0.0300
     18 C          64.2565   90.3440   13.7927 C.ar    1  UNL1        0.0622
     19 CL         63.3565   89.2891   14.3646 Cl      1  UNL1       -0.0821
     20 C          63.9791   90.9089   12.4311 C.ar    1  UNL1        0.0491
     21 H          66.6473   93.1462   12.2734 H       1  UNL1        0.1674
     22 N          63.1430   84.9594    9.7682 N.pl3   1  UNL1       -0.2127
     23 H          63.8152   84.7727    9.0736 H       1  UNL1        0.1738
     24 S          62.9688   84.0112   10.9174 S.O2    1  UNL1        0.0758
     25 O          61.6620   84.6642   11.2580 O.2     1  UNL1       -0.1499
     26 O          64.2755   83.3582   10.5767 O.2     1  UNL1       -0.1499
     27 C          62.7946   83.0630   12.0665 C.ar    1  UNL1        0.1524
     28 C          62.6143   81.5964   11.8080 C.ar    1  UNL1        0.0225
     29 C          62.4401   80.6481   12.9571 C.ar    1  UNL1        0.0015
     30 C          62.4463   81.1663   14.3647 C.ar    1  UNL1        0.0024
     31 C          62.6266   82.6329   14.6232 C.ar    1  UNL1        0.0310
     32 C          62.8008   83.5812   13.4741 C.ar    1  UNL1        0.1589
     33 F          62.9811   85.0477   13.7327 F       1  UNL1       -0.2027
@<TRIPOS>BOND
     1     9    10    2
     2    10     1    1
     3     1     2   ar
     4     2     3    1
     5     2     4   ar
     6     4     5   ar
     7     5     6   ar
     8     6    22    1
     9    22    24    1
    10    24    25    2
    11    24    26    2
    12    24    27    1
    13    27    28   ar
    14    28    29   ar
    15    29    30   ar
    16    30    31   ar
    17    31    32   ar
    18    32    33    1
    19     6     7   ar
    20     7     8    1
    21    10    11    1
    22    11    12   ar
    23    12    13   ar
    24    13    14   ar
    25    14    15   ar
    26    15    16   ar
    27    16    17   ar
    28    17    18   ar
    29    18    19    1
    30    18    20   ar
    31     7     1   ar
    32    20    11   ar
    33    32    27   ar
    34    20    14    1
    35    22    23    1
    36    15    21    1
@<TRIPOS>MOLECULE
*****
 33 36 0 0 0
SMALL
GASTEIGER

@<TRIPOS>ATOM
      1 C          63.4923   89.4138   12.3473 C.ar    1  UNL1        0.0951
      2 C          62.6185   89.1372   11.1599 C.ar    1  UNL1        0.1454
      3 F          62.2440   90.2517   10.2284 F       1  UNL1       -0.2040
      4 C          62.1193   87.7461   10.9040 C.ar    1  UNL1        0.0312
      5 C          62.4939   86.6316   11.8355 C.ar    1  UNL1        0.0204
      6 C          63.3676   86.9082   13.0229 C.ar    1  UNL1        0.0924
      7 C          63.8668   88.2993   13.2788 C.ar    1  UNL1        0.1598
      8 F          64.7406   88.5761   14.4663 F       1  UNL1       -0.2026
      9 O          64.2097   91.7464   11.4561 O.2     1  UNL1       -0.2864
     10 C          63.9915   90.8050   12.6033 C.2     1  UNL1        0.2016
     11 C          64.2726   91.2547   14.0065 C.ar    1  UNL1        0.0620
     12 C          63.3488   91.1126   15.1796 C.ar    1  UNL1        0.1038
     13 N          64.0321   91.6955   16.3809 N.ar    1  UNL1       -0.2268
     14 C          65.3784   92.1977   15.9503 C.ar    1  UNL1        0.1415
     15 N          66.4880   92.8679   16.7049 N.ar    1  UNL1       -0.3374
     16 C          67.7463   93.2657   15.9919 C.ar    1  UNL1        0.0744
     17 C          67.8950   92.9932   14.5244 C.ar    1  UNL1        0.0300
     18 C          66.7853   92.3230   13.7698 C.ar    1  UNL1        0.0622
     19 CL         66.9340   92.0506   12.3022 Cl      1  UNL1       -0.0821
     20 C          65.5270   91.9253   14.4828 C.ar    1  UNL1        0.0491
     21 H          66.3905   93.0467   17.6681 H       1  UNL1        0.1674
     22 N          63.7421   85.7938   13.9544 N.pl3   1  UNL1       -0.2127
     23 H          64.1895   85.9950   14.8080 H       1  UNL1        0.1738
     24 S          63.4349   84.3727   13.5854 S.O2    1  UNL1        0.0758
     25 O          62.0044   84.5775   13.9874 O.2     1  UNL1       -0.1499
     26 O          64.8654   84.1678   13.1834 O.2     1  UNL1       -0.1499
     27 C          63.1278   82.9516   13.2164 C.ar    1  UNL1        0.1524
     28 C          62.7305   81.9700   14.2787 C.ar    1  UNL1        0.0225
     29 C          62.4233   80.5489   13.9098 C.ar    1  UNL1        0.0015
     30 C          62.5135   80.1094   12.4784 C.ar    1  UNL1        0.0024
     31 C          62.9108   81.0910   11.4161 C.ar    1  UNL1        0.0310
     32 C          63.2180   82.5121   11.7851 C.ar    1  UNL1        0.1589
     33 F          63.6153   83.4937   10.7227 F       1  UNL1       -0.2027
@<TRIPOS>BOND
     1     9    10    2
     2    10     1    1
     3     1     2   ar
     4     2     3    1
     5     2     4   ar
     6     4     5   ar
     7     5     6   ar
     8     6    22    1
     9    22    24    1
    10    24    25    2
    11    24    26    2
    12    24    27    1
    13    27    28   ar
    14    28    29   ar
    15    29    30   ar
    16    30    31   ar
    17    31    32   ar
    18    32    33    1
    19     6     7   ar
    20     7     8    1
    21    10    11    1
    22    11    12   ar
    23    12    13   ar
    24    13    14   ar
    25    14    15   ar
    26    15    16   ar
    27    16    17   ar
    28    17    18   ar
    29    18    19    1
    30    18    20   ar
    31     7     1   ar
    32    20    11   ar
    33    32    27   ar
    34    20    14    1
    35    22    23    1
    36    15    21    1
@<TRIPOS>MOLECULE
*****
 33 36 0 0 0
SMALL
GASTEIGER

@<TRIPOS>ATOM
      1 C          61.5499   88.4026   11.0081 C.ar    1  UNL1        0.0951
      2 C          60.7205   88.6271    9.7785 C.ar    1  UNL1        0.1454
      3 F          59.8191   89.8227    9.6898 F       1  UNL1       -0.2040
      4 C          60.7927   87.6559    8.6377 C.ar    1  UNL1        0.0312
      5 C          61.6941   86.4602    8.7264 C.ar    1  UNL1        0.0204
      6 C          62.5234   86.2357    9.9560 C.ar    1  UNL1        0.0924
      7 C          62.4513   87.2070   11.0968 C.ar    1  UNL1        0.1598
      8 F          63.2806   86.9826   12.3264 F       1  UNL1       -0.2026
      9 O          60.1452   89.8567   12.6398 O.2     1  UNL1       -0.2864
     10 C          61.4778   89.3739   12.1490 C.2     1  UNL1        0.2016
     11 C          62.7384   89.8622   12.7990 C.ar    1  UNL1        0.0620
     12 C          63.2241   89.4927   14.1692 C.ar    1  UNL1        0.1038
     13 N          64.5205   90.2079   14.4099 N.ar    1  UNL1       -0.2268
     14 C          64.8359   91.0195   13.1885 C.ar    1  UNL1        0.1415
     15 N          65.9837   91.9254   12.8542 N.ar    1  UNL1       -0.3374
     16 C          66.0301   92.6177   11.5244 C.ar    1  UNL1        0.0744
     17 C          64.9287   92.4040   10.5288 C.ar    1  UNL1        0.0300
     18 C          63.7809   91.4981   10.8630 C.ar    1  UNL1        0.0622
     19 CL         62.6795   91.2844    9.8674 Cl      1  UNL1       -0.0821
     20 C          63.7345   90.8058   12.1929 C.ar    1  UNL1        0.0491
     21 H          66.7066   92.0657   13.5077 H       1  UNL1        0.1674
     22 N          63.4248   85.0401   10.0447 N.pl3   1  UNL1       -0.2127
     23 H          64.1972   84.9600    9.4396 H       1  UNL1        0.1738
     24 S          63.1493   83.9665   11.0554 S.O2    1  UNL1        0.0758
     25 O          64.5644   83.4853   10.9300 O.2     1  UNL1       -0.1499
     26 O          61.7341   84.4477   11.1808 O.2     1  UNL1       -0.1499
     27 C          62.8737   82.8929   12.0660 C.ar    1  UNL1        0.1524
     28 C          62.5978   83.2602   13.4940 C.ar    1  UNL1        0.0225
     29 C          62.3222   82.1867   14.5048 C.ar    1  UNL1        0.0015
     30 C          62.3224   80.7459   14.0876 C.ar    1  UNL1        0.0024
     31 C          62.5983   80.3786   12.6596 C.ar    1  UNL1        0.0310
     32 C          62.8739   81.4521   11.6489 C.ar    1  UNL1        0.1589
     33 F          63.1498   81.0848   10.2209 F       1  UNL1       -0.2027
@<TRIPOS>BOND
     1     9    10    2
     2    10     1    1
     3     1     2   ar
     4     2     3    1
     5     2     4   ar
     6     4     5   ar
     7     5     6   ar
     8     6    22    1
     9    22    24    1
    10    24    25    2
    11    24    26    2
    12    24    27    1
    13    27    28   ar
    14    28    29   ar
    15    29    30   ar
    16    30    31   ar
    17    31    32   ar
    18    32    33    1
    19     6     7   ar
    20     7     8    1
    21    10    11    1
    22    11    12   ar
    23    12    13   ar
    24    13    14   ar
    25    14    15   ar
    26    15    16   ar
    27    16    17   ar
    28    17    18   ar
    29    18    19    1
    30    18    20   ar
    31     7     1   ar
    32    20    11   ar
    33    32    27   ar
    34    20    14    1
    35    22    23    1
    36    15    21    1
@<TRIPOS>MOLECULE
*****
 33 36 0 0 0
SMALL
GASTEIGER

@<TRIPOS>ATOM
      1 C          62.7329   86.5744   12.0410 C.ar    1  UNL1        0.0951
      2 C          61.7726   86.2167   10.9455 C.ar    1  UNL1        0.1454
      3 F          61.6007   84.7836   10.5372 F       1  UNL1       -0.2040
      4 C          60.9843   87.2921   10.2585 C.ar    1  UNL1        0.0312
      5 C          61.1563   88.7252   10.6669 C.ar    1  UNL1        0.0204
      6 C          62.1165   89.0829   11.7623 C.ar    1  UNL1        0.0924
      7 C          62.9048   88.0074   12.4493 C.ar    1  UNL1        0.1598
      8 F          63.8651   88.3651   13.5448 F       1  UNL1       -0.2026
      9 O          64.2179   85.7914   14.0238 O.2     1  UNL1       -0.2864
     10 C          63.5213   85.4989   12.7281 C.2     1  UNL1        0.2016
     11 C          63.6130   84.1311   12.1193 C.ar    1  UNL1        0.0620
     12 C          64.2966   83.7838   10.8301 C.ar    1  UNL1        0.1038
     13 N          64.1432   82.3085   10.6069 N.ar    1  UNL1       -0.2268
     14 C          63.3648   81.7439   11.7582 C.ar    1  UNL1        0.1415
     15 N          62.9121   80.3497   12.0761 N.ar    1  UNL1       -0.3374
     16 C          62.1317   80.0819   13.3288 C.ar    1  UNL1        0.0744
     17 C          61.8040   81.2084   14.2635 C.ar    1  UNL1        0.0300
     18 C          62.2567   82.6026   13.9455 C.ar    1  UNL1        0.0622
     19 CL         61.9289   83.7291   14.8803 Cl      1  UNL1       -0.0821
     20 C          63.0371   82.8704   12.6929 C.ar    1  UNL1        0.0491
     21 H          63.1272   79.6104   11.4626 H       1  UNL1        0.1674
     22 N          62.2885   90.5159   12.1707 N.pl3   1  UNL1       -0.2127
     23 H          61.5222   91.1330   12.1359 H       1  UNL1        0.1738
     24 S          63.6280   91.0088   12.6320 S.O2    1  UNL1        0.0758
     25 O          63.1076   91.1094   14.0353 O.2     1  UNL1       -0.1499
     26 O          64.1483   90.9081   11.2288 O.2     1  UNL1       -0.1499
     27 C          64.9675   91.5016   13.0933 C.ar    1  UNL1        0.1524
     28 C          65.6117   90.8981   14.3061 C.ar    1  UNL1        0.0225
     29 C          66.9513   91.3908   14.7674 C.ar    1  UNL1        0.0015
     30 C          67.6466   92.4871   14.0160 C.ar    1  UNL1        0.0024
     31 C          67.0023   93.0906   12.8032 C.ar    1  UNL1        0.0310
     32 C          65.6628   92.5979   12.3419 C.ar    1  UNL1        0.1589
     33 F          65.0186   93.2014   11.1292 F       1  UNL1       -0.2027
@<TRIPOS>BOND
     1     9    10    2
     2    10     1    1
     3     1     2   ar
     4     2     3    1
     5     2     4   ar
     6     4     5   ar
     7     5     6   ar
     8     6    22    1
     9    22    24    1
    10    24    25    2
    11    24    26    2
    12    24    27    1
    13    27    28   ar
    14    28    29   ar
    15    29    30   ar
    16    30    31   ar
    17    31    32   ar
    18    32    33    1
    19     6     7   ar
    20     7     8    1
    21    10    11    1
    22    11    12   ar
    23    12    13   ar
    24    13    14   ar
    25    14    15   ar
    26    15    16   ar
    27    16    17   ar
    28    17    18   ar
    29    18    19    1
    30    18    20   ar
    31     7     1   ar
    32    20    11   ar
    33    32    27   ar
    34    20    14    1
    35    22    23    1
    36    15    21    1
@<TRIPOS>MOLECULE
*****
 33 36 0 0 0
SMALL
GASTEIGER

@<TRIPOS>ATOM
      1 C          63.4350   89.7115   12.4069 C.ar    1  UNL1        0.0951
      2 C          62.7776   89.3992   11.0953 C.ar    1  UNL1        0.1454
      3 F          62.4224   90.5094   10.1512 F       1  UNL1       -0.2040
      4 C          62.4755   87.9766   10.7278 C.ar    1  UNL1        0.0312
      5 C          62.8308   86.8665   11.6719 C.ar    1  UNL1        0.0204
      6 C          63.4881   87.1788   12.9835 C.ar    1  UNL1        0.0924
      7 C          63.7902   88.6013   13.3510 C.ar    1  UNL1        0.1598
      8 F          64.4476   88.9138   14.6626 F       1  UNL1       -0.2026
      9 O          62.6343   92.0396   13.2368 O.2     1  UNL1       -0.2864
     10 C          63.7371   91.1341   12.7745 C.2     1  UNL1        0.2016
     11 C          65.1420   91.6511   12.6796 C.ar    1  UNL1        0.0620
     12 C          65.9065   91.8994   11.4132 C.ar    1  UNL1        0.1038
     13 N          67.2660   92.4123   11.7854 N.ar    1  UNL1       -0.2268
     14 C          67.3418   92.4810   13.2820 C.ar    1  UNL1        0.1415
     15 N          68.4365   92.9111   14.2128 N.ar    1  UNL1       -0.3374
     16 C          68.2185   92.8708   15.6963 C.ar    1  UNL1        0.0744
     17 C          66.9057   92.4004   16.2489 C.ar    1  UNL1        0.0300
     18 C          65.8110   91.9702   15.3181 C.ar    1  UNL1        0.0622
     19 CL         64.4983   91.4998   15.8707 Cl      1  UNL1       -0.0821
     20 C          66.0291   92.0105   13.8346 C.ar    1  UNL1        0.0491
     21 H          69.2981   93.2199   13.8501 H       1  UNL1        0.1674
     22 N          63.8434   86.0686   13.9276 N.pl3   1  UNL1       -0.2127
     23 H          64.2993   86.2711   14.7763 H       1  UNL1        0.1738
     24 S          63.5039   84.6499   13.5785 S.O2    1  UNL1        0.0758
     25 O          62.0498   84.9430   13.8012 O.2     1  UNL1       -0.1499
     26 O          64.9580   84.3567   13.3559 O.2     1  UNL1       -0.1499
     27 C          63.1645   83.2311   13.2294 C.ar    1  UNL1        0.1524
     28 C          63.3380   82.7430   11.8217 C.ar    1  UNL1        0.0225
     29 C          62.9987   81.3243   11.4725 C.ar    1  UNL1        0.0015
     30 C          62.4859   80.3935   12.5311 C.ar    1  UNL1        0.0024
     31 C          62.3124   80.8815   13.9388 C.ar    1  UNL1        0.0310
     32 C          62.6517   82.3003   14.2880 C.ar    1  UNL1        0.1589
     33 F          62.4782   82.7883   15.6958 F       1  UNL1       -0.2027
@<TRIPOS>BOND
     1     9    10    2
     2    10     1    1
     3     1     2   ar
     4     2     3    1
     5     2     4   ar
     6     4     5   ar
     7     5     6   ar
     8     6    22    1
     9    22    24    1
    10    24    25    2
    11    24    26    2
    12    24    27    1
    13    27    28   ar
    14    28    29   ar
    15    29    30   ar
    16    30    31   ar
    17    31    32   ar
    18    32    33    1
    19     6     7   ar
    20     7     8    1
    21    10    11    1
    22    11    12   ar
    23    12    13   ar
    24    13    14   ar
    25    14    15   ar
    26    15    16   ar
    27    16    17   ar
    28    17    18   ar
    29    18    19    1
    30    18    20   ar
    31     7     1   ar
    32    20    11   ar
    33    32    27   ar
    34    20    14    1
    35    22    23    1
    36    15    21    1
@<TRIPOS>MOLECULE
*****
 33 36 0 0 0
SMALL
GASTEIGER

@<TRIPOS>ATOM
      1 C          62.5522   85.8754   10.6928 C.ar    1  UNL1        0.0951
      2 C          61.8818   85.8468    9.3513 C.ar    1  UNL1        0.1454
      3 F          61.9701   84.6186    8.4948 F       1  UNL1       -0.2040
      4 C          61.1231   87.0465    8.8664 C.ar    1  UNL1        0.0312
      5 C          61.0348   88.2747    9.7230 C.ar    1  UNL1        0.0204
      6 C          61.7052   88.3033   11.0645 C.ar    1  UNL1        0.0924
      7 C          62.4639   87.1036   11.5494 C.ar    1  UNL1        0.1598
      8 F          63.1344   87.1321   12.8910 F       1  UNL1       -0.2026
      9 O          64.4549   84.1357   10.3718 O.2     1  UNL1       -0.2864
     10 C          63.3110   84.6757   11.1778 C.2     1  UNL1        0.2016
     11 C          62.9258   84.0162   12.4688 C.ar    1  UNL1        0.0620
     12 C          62.6611   84.7132   13.7704 C.ar    1  UNL1        0.1038
     13 N          62.3094   83.6716   14.7908 N.ar    1  UNL1       -0.2268
     14 C          62.3566   82.3308   14.1199 C.ar    1  UNL1        0.1415
     15 N          62.1019   80.9436   14.6304 N.ar    1  UNL1       -0.3374
     16 C          62.2283   79.7693   13.7057 C.ar    1  UNL1        0.0744
     17 C          62.6092   79.9822   12.2706 C.ar    1  UNL1        0.0300
     18 C          62.8639   81.3695   11.7602 C.ar    1  UNL1        0.0622
     19 CL         63.2449   81.5825   10.3251 Cl      1  UNL1       -0.0821
     20 C          62.7376   82.5438   12.6848 C.ar    1  UNL1        0.0491
     21 H          61.8519   80.8038   15.5723 H       1  UNL1        0.1674
     22 N          61.6169   89.5315   11.9211 N.pl3   1  UNL1       -0.2127
     23 H          60.7369   89.8974   12.1677 H       1  UNL1        0.1738
     24 S          62.8695   90.2022   12.4018 S.O2    1  UNL1        0.0758
     25 O          63.3016   90.4136   10.9811 O.2     1  UNL1       -0.1499
     26 O          62.4374   89.9908   13.8226 O.2     1  UNL1       -0.1499
     27 C          64.1221   90.8729   12.8827 C.ar    1  UNL1        0.1524
     28 C          64.6525   92.0766   12.1617 C.ar    1  UNL1        0.0225
     29 C          65.9051   92.7473   12.6425 C.ar    1  UNL1        0.0015
     30 C          66.6273   92.2144   13.8443 C.ar    1  UNL1        0.0024
     31 C          66.0968   91.0107   14.5653 C.ar    1  UNL1        0.0310
     32 C          64.8443   90.3399   14.0845 C.ar    1  UNL1        0.1589
     33 F          64.3139   89.1363   14.8056 F       1  UNL1       -0.2027
@<TRIPOS>BOND
     1     9    10    2
     2    10     1    1
     3     1     2   ar
     4     2     3    1
     5     2     4   ar
     6     4     5   ar
     7     5     6   ar
     8     6    22    1
     9    22    24    1
    10    24    25    2
    11    24    26    2
    12    24    27    1
    13    27    28   ar
    14    28    29   ar
    15    29    30   ar
    16    30    31   ar
    17    31    32   ar
    18    32    33    1
    19     6     7   ar
    20     7     8    1
    21    10    11    1
    22    11    12   ar
    23    12    13   ar
    24    13    14   ar
    25    14    15   ar
    26    15    16   ar
    27    16    17   ar
    28    17    18   ar
    29    18    19    1
    30    18    20   ar
    31     7     1   ar
    32    20    11   ar
    33    32    27   ar
    34    20    14    1
    35    22    23    1
    36    15    21    1
@<TRIPOS>MOLECULE
*****
 33 36 0 0 0
SMALL
GASTEIGER

@<TRIPOS>ATOM
      1 C          63.2594   83.6014   11.4211 C.ar    1  UNL1        0.0951
      2 C          63.1468   82.1104   11.3011 C.ar    1  UNL1        0.1454
      3 F          62.7357   81.4918    9.9980 F       1  UNL1       -0.2040
      4 C          63.4455   81.2382   12.4843 C.ar    1  UNL1        0.0312
      5 C          63.8566   81.8568   13.7875 C.ar    1  UNL1        0.0204
      6 C          63.9692   83.3478   13.9075 C.ar    1  UNL1        0.0924
      7 C          63.6705   84.2200   12.7243 C.ar    1  UNL1        0.1598
      8 F          63.7830   85.7110   12.8442 F       1  UNL1       -0.2026
      9 O          63.6529   84.2267    8.9304 O.2     1  UNL1       -0.2864
     10 C          62.9607   84.4737   10.2379 C.2     1  UNL1        0.2016
     11 C          61.9699   85.5930   10.3624 C.ar    1  UNL1        0.0620
     12 C          61.6654   86.3662   11.6112 C.ar    1  UNL1        0.1038
     13 N          60.6170   87.3866   11.2804 N.ar    1  UNL1       -0.2268
     14 C          60.2735   87.2442    9.8273 C.ar    1  UNL1        0.1415
     15 N          59.3073   87.9806    8.9474 N.ar    1  UNL1       -0.3374
     16 C          59.1774   87.6085    7.5001 C.ar    1  UNL1        0.0744
     17 C          60.0136   86.5000    6.9327 C.ar    1  UNL1        0.0300
     18 C          60.9797   85.7635    7.8126 C.ar    1  UNL1        0.0622
     19 CL         61.8159   84.6550    7.2452 Cl      1  UNL1       -0.0821
     20 C          61.1096   86.1356    9.2598 C.ar    1  UNL1        0.0491
     21 H          58.7585   88.7082    9.3198 H       1  UNL1        0.1674
     22 N          64.3803   83.9664   15.2106 N.pl3   1  UNL1       -0.2127
     23 H          64.8106   83.4148   15.9033 H       1  UNL1        0.1738
     24 S          64.1359   85.4255   15.4584 S.O2    1  UNL1        0.0758
     25 O          62.6901   85.1364   15.7343 O.2     1  UNL1       -0.1499
     26 O          65.5817   85.7145   15.1824 O.2     1  UNL1       -0.1499
     27 C          63.8916   86.8845   15.7061 C.ar    1  UNL1        0.1524
     28 C          64.2968   87.8981   14.6772 C.ar    1  UNL1        0.0225
     29 C          64.0525   89.3572   14.9248 C.ar    1  UNL1        0.0015
     30 C          63.4029   89.8028   16.2013 C.ar    1  UNL1        0.0024
     31 C          62.9977   88.7892   17.2302 C.ar    1  UNL1        0.0310
     32 C          63.2420   87.3301   16.9826 C.ar    1  UNL1        0.1589
     33 F          62.8367   86.3166   18.0115 F       1  UNL1       -0.2027
@<TRIPOS>BOND
     1     9    10    2
     2    10     1    1
     3     1     2   ar
     4     2     3    1
     5     2     4   ar
     6     4     5   ar
     7     5     6   ar
     8     6    22    1
     9    22    24    1
    10    24    25    2
    11    24    26    2
    12    24    27    1
    13    27    28   ar
    14    28    29   ar
    15    29    30   ar
    16    30    31   ar
    17    31    32   ar
    18    32    33    1
    19     6     7   ar
    20     7     8    1
    21    10    11    1
    22    11    12   ar
    23    12    13   ar
    24    13    14   ar
    25    14    15   ar
    26    15    16   ar
    27    16    17   ar
    28    17    18   ar
    29    18    19    1
    30    18    20   ar
    31     7     1   ar
    32    20    11   ar
    33    32    27   ar
    34    20    14    1
    35    22    23    1
    36    15    21    1
