@<TRIPOS>MOLECULE
*****
 23 26 0 0 0
SMALL
GASTEIGER

@<TRIPOS>ATOM
      1 C          62.4867   89.5083   11.7602 C.2     1  UNL1        0.3394
      2 O          61.2041   89.6746   12.5200 O.2     1  UNL1       -0.2452
      3 C          63.8785   89.5646   14.6517 C.3     1  UNL1        0.0271
      4 C          64.6294   90.7308   14.0808 C.2     1  UNL1       -0.0335
      5 C          65.6452   91.4509   14.9172 C.2     1  UNL1        0.0036
      6 C          66.3962   92.6170   14.3464 C.2     1  UNL1        0.0583
      7 CL         67.4120   93.3371   15.1829 Cl      1  UNL1       -0.0822
      8 C          66.1314   93.0633   12.9389 C.2     1  UNL1        0.0267
      9 C          65.1157   92.3433   12.1024 C.2     1  UNL1        0.0676
     10 N          64.6446   92.5533   10.6939 N.2     1  UNL1       -0.2476
     11 C          63.6025   91.5169   10.3943 C.2     1  UNL1        0.1013
     12 C          63.4295   90.6663   11.6176 C.2     1  UNL1        0.0814
     13 C          64.3647   91.1770   12.6734 C.3     1  UNL1        0.0886
     14 O          62.8266   88.1841   11.1431 O.3     1  UNL1       -0.4456
     15 C          61.7968   87.0948   11.0904 C.3     1  UNL1        0.2087
     16 C          61.1565   86.7305    9.7838 C.3     1  UNL1        0.0445
     17 C          59.7827   87.2356    9.4553 C.3     1  UNL1        0.0210
     18 C          59.1423   86.8713    8.1487 C.3     1  UNL1        0.0722
     19 N          59.8757   86.0020    7.1706 N.3     1  UNL1       -0.2727
     20 C          61.2493   85.4969    7.4991 C.3     1  UNL1        0.0722
     21 C          61.8897   85.8612    8.8057 C.3     1  UNL1        0.0210
     22 C          60.2675   86.1749    7.8739 C.3     1  UNL1        0.0722
     23 C          60.8465   86.5043    9.0553 C.3     1  UNL1        0.0210
@<TRIPOS>BOND
     1     3     4    1
     2     4     5    2
     3     5     6    1
     4     6     7    1
     5     6     8    2
     6     8     9    1
     7     9    10    2
     8    10    11    1
     9    11    12    2
    10    12     1    1
    11     1     2    2
    12     1    14    1
    13    14    15    1
    14    15    16    1
    15    16    17    1
    16    17    18    1
    17    18    19    1
    18    19    20    1
    19    20    21    1
    20    19    22    1
    21    22    23    1
    22    12    13    1
    23    13     4    1
    24    13     9    1
    25    21    16    1
    26    23    16    1
@<TRIPOS>MOLECULE
*****
 23 26 0 0 0
SMALL
GASTEIGER

@<TRIPOS>ATOM
      1 C          62.2476   89.1147   11.9702 C.2     1  UNL1        0.3394
      2 O          60.8031   89.3307   12.3122 O.2     1  UNL1       -0.2452
      3 C          63.9570   89.3959   14.6720 C.3     1  UNL1        0.0271
      4 C          64.5958   90.5441   13.9485 C.2     1  UNL1       -0.0335
      5 C          65.6740   91.3449   14.6164 C.2     1  UNL1        0.0036
      6 C          66.3128   92.4931   13.8930 C.2     1  UNL1        0.0583
      7 CL         67.3910   93.2939   14.5610 Cl      1  UNL1       -0.0822
      8 C          65.8735   92.8405   12.5014 C.2     1  UNL1        0.0267
      9 C          64.7954   92.0396   11.8334 C.2     1  UNL1        0.0676
     10 N          64.1596   92.1455   10.4789 N.2     1  UNL1       -0.2476
     11 C          63.1278   91.0627   10.3654 C.2     1  UNL1        0.1013
     12 C          63.1259   90.2876   11.6496 C.2     1  UNL1        0.0814
     13 C          64.1565   90.8914   12.5569 C.3     1  UNL1        0.0886
     14 O          62.8137   87.7258   11.9490 O.3     1  UNL1       -0.4456
     15 C          62.1731   86.6678   11.1003 C.3     1  UNL1        0.2087
     16 C          62.6689   85.2535   11.1636 C.3     1  UNL1        0.0445
     17 C          63.2795   84.6179    9.9498 C.3     1  UNL1        0.0210
     18 C          63.7753   83.2036   10.0130 C.3     1  UNL1        0.0722
     19 N          63.6605   82.4249   11.2900 N.3     1  UNL1       -0.2727
     20 C          63.0499   83.0605   12.5037 C.3     1  UNL1        0.0722
     21 C          62.5541   84.4748   12.4405 C.3     1  UNL1        0.0210
     22 C          63.3747   83.1970   11.3037 C.3     1  UNL1        0.0722
     23 C          62.9264   84.4759   11.2465 C.3     1  UNL1        0.0210
@<TRIPOS>BOND
     1     3     4    1
     2     4     5    2
     3     5     6    1
     4     6     7    1
     5     6     8    2
     6     8     9    1
     7     9    10    2
     8    10    11    1
     9    11    12    2
    10    12     1    1
    11     1     2    2
    12     1    14    1
    13    14    15    1
    14    15    16    1
    15    16    17    1
    16    17    18    1
    17    18    19    1
    18    19    20    1
    19    20    21    1
    20    19    22    1
    21    22    23    1
    22    12    13    1
    23    13     4    1
    24    13     9    1
    25    21    16    1
    26    23    16    1
@<TRIPOS>MOLECULE
*****
 23 26 0 0 0
SMALL
GASTEIGER

@<TRIPOS>ATOM
      1 C          64.4153   90.6608   13.8628 C.2     1  UNL1        0.3394
      2 O          63.5570   91.5118   14.7511 O.2     1  UNL1       -0.2452
      3 C          62.9856   90.9825   11.0075 C.3     1  UNL1        0.0271
      4 C          62.7909   89.5000   11.1270 C.2     1  UNL1       -0.0335
      5 C          62.0922   88.7449   10.0354 C.2     1  UNL1        0.0036
      6 C          61.8976   87.2625   10.1549 C.2     1  UNL1        0.0583
      7 CL         61.1988   86.5073    9.0633 Cl      1  UNL1       -0.0822
      8 C          62.4016   86.5350   11.3661 C.2     1  UNL1        0.0267
      9 C          63.1003   87.2901   12.4577 C.2     1  UNL1        0.0676
     10 N          63.7005   86.8472   13.7590 N.2     1  UNL1       -0.2476
     11 C          64.2662   88.0560   14.4438 C.2     1  UNL1        0.1013
     12 C          64.0156   89.2460   13.5656 C.2     1  UNL1        0.0814
     13 C          63.2950   88.7727   12.3381 C.3     1  UNL1        0.0886
     14 O          65.6733   91.2247   13.2717 O.3     1  UNL1       -0.4456
     15 C          65.6974   92.6370   12.7671 C.3     1  UNL1        0.2087
     16 C          66.4194   92.9665   11.4942 C.3     1  UNL1        0.0445
     17 C          67.5289   92.0803   11.0104 C.3     1  UNL1        0.0210
     18 C          68.2510   92.4097    9.7376 C.3     1  UNL1        0.0722
     19 N          67.8636   93.6253    8.9486 N.3     1  UNL1       -0.2727
     20 C          66.7543   94.5114    9.4324 C.3     1  UNL1        0.0722
     21 C          66.0322   94.1820   10.7052 C.3     1  UNL1        0.0210
     22 C          67.4389   93.4857    9.6400 C.3     1  UNL1        0.0722
     23 C          66.7860   93.1877   10.7909 C.3     1  UNL1        0.0210
@<TRIPOS>BOND
     1     3     4    1
     2     4     5    2
     3     5     6    1
     4     6     7    1
     5     6     8    2
     6     8     9    1
     7     9    10    2
     8    10    11    1
     9    11    12    2
    10    12     1    1
    11     1     2    2
    12     1    14    1
    13    14    15    1
    14    15    16    1
    15    16    17    1
    16    17    18    1
    17    18    19    1
    18    19    20    1
    19    20    21    1
    20    19    22    1
    21    22    23    1
    22    12    13    1
    23    13     4    1
    24    13     9    1
    25    21    16    1
    26    23    16    1
@<TRIPOS>MOLECULE
*****
 23 26 0 0 0
SMALL
GASTEIGER

@<TRIPOS>ATOM
      1 C          62.4134   89.2538   12.2155 C.2     1  UNL1        0.3394
      2 O          60.9805   89.4353   12.6201 O.2     1  UNL1       -0.2452
      3 C          63.1234   91.3354    9.8781 C.3     1  UNL1        0.0271
      4 C          64.1064   91.8652   10.8796 C.2     1  UNL1       -0.0335
      5 C          64.9832   93.0298   10.5261 C.2     1  UNL1        0.0036
      6 C          65.9662   93.5596   11.5275 C.2     1  UNL1        0.0583
      7 CL         66.8430   94.7243   11.1740 Cl      1  UNL1       -0.0822
      8 C          66.0725   92.9249   12.8825 C.2     1  UNL1        0.0267
      9 C          65.1957   91.7603   13.2359 C.2     1  UNL1        0.0676
     10 N          65.0765   90.9361   14.4835 N.2     1  UNL1       -0.2476
     11 C          64.0197   89.8968   14.2530 C.2     1  UNL1        0.1013
     12 C          63.4858   90.0787   12.8631 C.2     1  UNL1        0.0814
     13 C          64.2127   91.2305   12.2345 C.3     1  UNL1        0.0886
     14 O          62.7740   88.2472   11.1634 O.3     1  UNL1       -0.4456
     15 C          61.9926   86.9723   11.0462 C.3     1  UNL1        0.2087
     16 C          61.3664   86.5940    9.7366 C.3     1  UNL1        0.0445
     17 C          62.1310   85.7579    8.7535 C.3     1  UNL1        0.0210
     18 C          61.5049   85.3796    7.4440 C.3     1  UNL1        0.0722
     19 N          60.1142   85.8375    7.1175 N.3     1  UNL1       -0.2727
     20 C          59.3497   86.6736    8.1006 C.3     1  UNL1        0.0722
     21 C          59.9758   87.0519    9.4101 C.3     1  UNL1        0.0210
     22 C          60.4154   86.0699    7.8478 C.3     1  UNL1        0.0722
     23 C          60.9816   86.4119    9.0319 C.3     1  UNL1        0.0210
@<TRIPOS>BOND
     1     3     4    1
     2     4     5    2
     3     5     6    1
     4     6     7    1
     5     6     8    2
     6     8     9    1
     7     9    10    2
     8    10    11    1
     9    11    12    2
    10    12     1    1
    11     1     2    2
    12     1    14    1
    13    14    15    1
    14    15    16    1
    15    16    17    1
    16    17    18    1
    17    18    19    1
    18    19    20    1
    19    20    21    1
    20    19    22    1
    21    22    23    1
    22    12    13    1
    23    13     4    1
    24    13     9    1
    25    21    16    1
    26    23    16    1
@<TRIPOS>MOLECULE
*****
 23 26 0 0 0
SMALL
GASTEIGER

@<TRIPOS>ATOM
      1 C          63.1875   84.9317   13.2889 C.2     1  UNL1        0.3394
      2 O          62.2247   85.8396   12.5826 O.2     1  UNL1       -0.2452
      3 C          63.8036   83.6219   10.4243 C.3     1  UNL1        0.0271
      4 C          63.3452   82.3591   11.0916 C.2     1  UNL1       -0.0335
      5 C          63.3222   81.0708   10.3237 C.2     1  UNL1        0.0036
      6 C          62.8639   79.8081   10.9910 C.2     1  UNL1        0.0583
      7 CL         62.8408   78.5197   10.2230 Cl      1  UNL1       -0.0822
      8 C          62.4285   79.8335   12.4262 C.2     1  UNL1        0.0267
      9 C          62.4515   81.1219   13.1941 C.2     1  UNL1        0.0676
     10 N          62.0835   81.4530   14.6101 N.2     1  UNL1       -0.2476
     11 C          62.3144   82.9205   14.8179 C.2     1  UNL1        0.1013
     12 C          62.8251   83.4963   13.5304 C.2     1  UNL1        0.0814
     13 C          62.9099   82.3846   12.5268 C.3     1  UNL1        0.0886
     14 O          64.5125   85.4592   13.7536 O.3     1  UNL1       -0.4456
     15 C          64.6270   86.1238   15.0933 C.3     1  UNL1        0.2087
     16 C          64.1404   87.5309   15.2766 C.3     1  UNL1        0.0445
     17 C          63.3880   87.9084   16.5181 C.3     1  UNL1        0.0210
     18 C          62.9014   89.3154   16.7014 C.3     1  UNL1        0.0722
     19 N          63.1672   90.3449   15.6432 N.3     1  UNL1       -0.2727
     20 C          63.9197   89.9673   14.4018 C.3     1  UNL1        0.0722
     21 C          64.4063   88.5603   14.2185 C.3     1  UNL1        0.0210
     22 C          63.4536   89.5866   15.4981 C.3     1  UNL1        0.0722
     23 C          63.8936   88.3144   15.3324 C.3     1  UNL1        0.0210
@<TRIPOS>BOND
     1     3     4    1
     2     4     5    2
     3     5     6    1
     4     6     7    1
     5     6     8    2
     6     8     9    1
     7     9    10    2
     8    10    11    1
     9    11    12    2
    10    12     1    1
    11     1     2    2
    12     1    14    1
    13    14    15    1
    14    15    16    1
    15    16    17    1
    16    17    18    1
    17    18    19    1
    18    19    20    1
    19    20    21    1
    20    19    22    1
    21    22    23    1
    22    12    13    1
    23    13     4    1
    24    13     9    1
    25    21    16    1
    26    23    16    1
@<TRIPOS>MOLECULE
*****
 23 26 0 0 0
SMALL
GASTEIGER

@<TRIPOS>ATOM
      1 C          63.4297   89.8395   15.2241 C.2     1  UNL1        0.3394
      2 O          63.1435   90.8194   16.3230 O.2     1  UNL1       -0.2452
      3 C          66.1348   91.5507   14.9895 C.3     1  UNL1        0.0271
      4 C          65.6870   91.7487   13.5716 C.2     1  UNL1       -0.0335
      5 C          66.5212   92.5640   12.6286 C.2     1  UNL1        0.0036
      6 C          66.0735   92.7619   11.2108 C.2     1  UNL1        0.0583
      7 CL         66.9077   93.5773   10.2677 Cl      1  UNL1       -0.0822
      8 C          64.7915   92.1445   10.7359 C.2     1  UNL1        0.0267
      9 C          63.9573   91.3292   11.6790 C.2     1  UNL1        0.0676
     10 N          62.6570   90.6037   11.4979 N.2     1  UNL1       -0.2476
     11 C          62.3012   89.9573   12.8038 C.2     1  UNL1        0.1013
     12 C          63.3815   90.2834   13.7921 C.2     1  UNL1        0.0814
     13 C          64.4051   91.1313   13.0968 C.3     1  UNL1        0.0886
     14 O          63.7642   88.4157   15.5571 O.3     1  UNL1       -0.4456
     15 C          64.4743   87.5575   14.5525 C.3     1  UNL1        0.2087
     16 C          64.0453   86.1353   14.3444 C.3     1  UNL1        0.0445
     17 C          63.3766   85.7336   13.0631 C.3     1  UNL1        0.0210
     18 C          62.9475   84.3114   12.8549 C.3     1  UNL1        0.0722
     19 N          63.1872   83.2909   13.9279 N.3     1  UNL1       -0.2727
     20 C          63.8559   83.6926   15.2091 C.3     1  UNL1        0.0722
     21 C          64.2850   85.1148   15.4173 C.3     1  UNL1        0.0210
     22 C          63.4399   84.0581   14.0877 C.3     1  UNL1        0.0722
     23 C          63.8278   85.3441   14.2760 C.3     1  UNL1        0.0210
@<TRIPOS>BOND
     1     3     4    1
     2     4     5    2
     3     5     6    1
     4     6     7    1
     5     6     8    2
     6     8     9    1
     7     9    10    2
     8    10    11    1
     9    11    12    2
    10    12     1    1
    11     1     2    2
    12     1    14    1
    13    14    15    1
    14    15    16    1
    15    16    17    1
    16    17    18    1
    17    18    19    1
    18    19    20    1
    19    20    21    1
    20    19    22    1
    21    22    23    1
    22    12    13    1
    23    13     4    1
    24    13     9    1
    25    21    16    1
    26    23    16    1
@<TRIPOS>MOLECULE
*****
 23 26 0 0 0
SMALL
GASTEIGER

@<TRIPOS>ATOM
      1 C          62.9486   85.0329   13.1132 C.2     1  UNL1        0.3394
      2 O          64.2109   85.6678   13.6167 O.2     1  UNL1       -0.2452
      3 C          63.6096   83.6439   10.2964 C.3     1  UNL1        0.0271
      4 C          63.2218   82.3867   11.0170 C.2     1  UNL1       -0.0335
      5 C          63.2592   81.0695   10.3004 C.2     1  UNL1        0.0036
      6 C          62.8715   79.8125   11.0209 C.2     1  UNL1        0.0583
      7 CL         62.9089   78.4952   10.3042 Cl      1  UNL1       -0.0822
      8 C          62.4462   79.8725   12.4582 C.2     1  UNL1        0.0267
      9 C          62.4088   81.1897   13.1748 C.2     1  UNL1        0.0676
     10 N          62.0349   81.5574   14.5801 N.2     1  UNL1       -0.2476
     11 C          62.1916   83.0419   14.7281 C.2     1  UNL1        0.1013
     12 C          62.6624   83.5916   13.4142 C.2     1  UNL1        0.0814
     13 C          62.7966   82.4468   12.4542 C.3     1  UNL1        0.0886
     14 O          61.9726   85.8393   12.3086 O.3     1  UNL1       -0.4456
     15 C          62.4452   86.6161   11.1157 C.3     1  UNL1        0.2087
     16 C          61.4679   87.0328   10.0569 C.3     1  UNL1        0.0445
     17 C          60.9222   86.0163    9.0981 C.3     1  UNL1        0.0210
     18 C          59.9449   86.4330    8.0392 C.3     1  UNL1        0.0722
     19 N          59.5133   87.8661    7.9390 N.3     1  UNL1       -0.2727
     20 C          60.0590   88.8825    8.8977 C.3     1  UNL1        0.0722
     21 C          61.0363   88.4659    9.9567 C.3     1  UNL1        0.0210
     22 C          60.0510   87.6854    8.5359 C.3     1  UNL1        0.0722
     23 C          60.9347   87.3086    9.4933 C.3     1  UNL1        0.0210
@<TRIPOS>BOND
     1     3     4    1
     2     4     5    2
     3     5     6    1
     4     6     7    1
     5     6     8    2
     6     8     9    1
     7     9    10    2
     8    10    11    1
     9    11    12    2
    10    12     1    1
    11     1     2    2
    12     1    14    1
    13    14    15    1
    14    15    16    1
    15    16    17    1
    16    17    18    1
    17    18    19    1
    18    19    20    1
    19    20    21    1
    20    19    22    1
    21    22    23    1
    22    12    13    1
    23    13     4    1
    24    13     9    1
    25    21    16    1
    26    23    16    1
@<TRIPOS>MOLECULE
*****
 23 26 0 0 0
SMALL
GASTEIGER

@<TRIPOS>ATOM
      1 C          62.6024   88.8640   12.2835 C.2     1  UNL1        0.3394
      2 O          61.1450   89.2186   12.2898 O.2     1  UNL1       -0.2452
      3 C          63.1404   91.0715   10.0168 C.3     1  UNL1        0.0271
      4 C          64.0678   91.6537   11.0420 C.2     1  UNL1       -0.0335
      5 C          64.8412   92.9008   10.7316 C.2     1  UNL1        0.0036
      6 C          65.7685   93.4830   11.7567 C.2     1  UNL1        0.0583
      7 CL         66.5420   94.7302   11.4462 Cl      1  UNL1       -0.0822
      8 C          65.9225   92.8180   13.0925 C.2     1  UNL1        0.0267
      9 C          65.1490   91.5709   13.4029 C.2     1  UNL1        0.0676
     10 N          65.0954   90.7008   14.6237 N.2     1  UNL1       -0.2476
     11 C          64.1350   89.5810   14.3529 C.2     1  UNL1        0.1013
     12 C          63.5949   89.7589   12.9648 C.2     1  UNL1        0.0814
     13 C          64.2217   90.9887   12.3777 C.3     1  UNL1        0.0886
     14 O          63.0674   87.6146   11.5958 O.3     1  UNL1       -0.4456
     15 C          62.1273   86.4583   11.4252 C.3     1  UNL1        0.2087
     16 C          62.6645   85.0599   11.3488 C.3     1  UNL1        0.0445
     17 C          63.2425   84.5478   10.0627 C.3     1  UNL1        0.0210
     18 C          63.7797   83.1494    9.9862 C.3     1  UNL1        0.0722
     19 N          63.7390   82.2631   11.1958 N.3     1  UNL1       -0.2727
     20 C          63.1611   82.7752   12.4818 C.3     1  UNL1        0.0722
     21 C          62.6239   84.1736   12.5583 C.3     1  UNL1        0.0210
     22 C          63.4326   83.0220   11.2862 C.3     1  UNL1        0.0722
     23 C          62.9469   84.2865   11.3553 C.3     1  UNL1        0.0210
@<TRIPOS>BOND
     1     3     4    1
     2     4     5    2
     3     5     6    1
     4     6     7    1
     5     6     8    2
     6     8     9    1
     7     9    10    2
     8    10    11    1
     9    11    12    2
    10    12     1    1
    11     1     2    2
    12     1    14    1
    13    14    15    1
    14    15    16    1
    15    16    17    1
    16    17    18    1
    17    18    19    1
    18    19    20    1
    19    20    21    1
    20    19    22    1
    21    22    23    1
    22    12    13    1
    23    13     4    1
    24    13     9    1
    25    21    16    1
    26    23    16    1
@<TRIPOS>MOLECULE
*****
 23 26 0 0 0
SMALL
GASTEIGER

@<TRIPOS>ATOM
      1 C          62.3971   88.6205   11.6027 C.2     1  UNL1        0.3394
      2 O          60.9165   88.5027   11.3931 O.2     1  UNL1       -0.2452
      3 C          61.7495   85.7198   10.3916 C.3     1  UNL1        0.0271
      4 C          62.5469   85.2372   11.5669 C.2     1  UNL1       -0.0335
      5 C          62.7598   83.7672   11.7761 C.2     1  UNL1        0.0036
      6 C          63.5572   83.2846   12.9513 C.2     1  UNL1        0.0583
      7 CL         63.7701   81.8145   13.1605 Cl      1  UNL1       -0.0822
      8 C          64.1418   84.2720   13.9174 C.2     1  UNL1        0.0267
      9 C          63.9289   85.7420   13.7082 C.2     1  UNL1        0.0676
     10 N          64.3795   86.9422   14.4870 N.2     1  UNL1       -0.2476
     11 C          63.8605   88.1666   13.7930 C.2     1  UNL1        0.1013
     12 C          63.0892   87.7231   12.5854 C.2     1  UNL1        0.0814
     13 C          63.1315   86.2246   12.5329 C.3     1  UNL1        0.0886
     14 O          63.1856   89.6357   10.8296 O.3     1  UNL1       -0.4456
     15 C          63.1555   91.0785   11.2385 C.3     1  UNL1        0.2087
     16 C          64.4188   91.7621   11.6708 C.3     1  UNL1        0.0445
     17 C          64.8830   91.6505   13.0928 C.3     1  UNL1        0.0210
     18 C          66.1463   92.3341   13.5252 C.3     1  UNL1        0.0722
     19 N          66.9453   93.1293   12.5355 N.3     1  UNL1       -0.2727
     20 C          66.4810   93.2409   11.1136 C.3     1  UNL1        0.0722
     21 C          65.2177   92.5573   10.6812 C.3     1  UNL1        0.0210
     22 C          66.2596   92.7724   12.2518 C.3     1  UNL1        0.0722
     23 C          65.1174   92.1543   11.8609 C.3     1  UNL1        0.0210
@<TRIPOS>BOND
     1     3     4    1
     2     4     5    2
     3     5     6    1
     4     6     7    1
     5     6     8    2
     6     8     9    1
     7     9    10    2
     8    10    11    1
     9    11    12    2
    10    12     1    1
    11     1     2    2
    12     1    14    1
    13    14    15    1
    14    15    16    1
    15    16    17    1
    16    17    18    1
    17    18    19    1
    18    19    20    1
    19    20    21    1
    20    19    22    1
    21    22    23    1
    22    12    13    1
    23    13     4    1
    24    13     9    1
    25    21    16    1
    26    23    16    1
