@<TRIPOS>MOLECULE
*****
 36 40 0 0 0
SMALL
GASTEIGER

@<TRIPOS>ATOM
      1 N          62.6710   88.1879   11.8827 N.ar    1  UNL1       -0.2644
      2 C          62.3792   88.6703   10.4926 C.ar    1  UNL1        0.2037
      3 N          62.9722   89.9593   10.0061 N.ar    1  UNL1       -0.2148
      4 C          63.8570   90.7660   10.9096 C.ar    1  UNL1        0.0901
      5 C          64.4500   92.0550   10.4231 C.ar    1  UNL1        0.0361
      6 C          65.3349   92.8617   11.3265 C.ar    1  UNL1        0.0773
      7 C          65.6267   92.3793   12.7166 C.ar    1  UNL1        0.1536
      8 F          66.5116   93.1860   13.6201 F       1  UNL1       -0.2029
      9 C          65.0337   91.0903   13.2031 C.ar    1  UNL1        0.0372
     10 C          64.1489   90.2837   12.2996 C.ar    1  UNL1        0.0763
     11 C          63.5558   88.9946   12.7861 C.ar    1  UNL1        0.2646
     12 O          63.8477   88.5122   14.1762 O.2     1  UNL1       -0.2668
     13 N          61.4943   87.8636    9.5891 N.pl3   1  UNL1       -0.2781
     14 C          60.0137   88.1037    9.5796 C.3     1  UNL1        0.0937
     15 C          59.1289   87.2970    8.6761 C.3     1  UNL1        0.0229
     16 C          59.7247   86.2501    7.7822 C.3     1  UNL1        0.0190
     17 C          61.2052   86.0099    7.7918 C.3     1  UNL1        0.0710
     18 N          61.8010   84.9630    6.8979 N.3     1  UNL1       -0.3208
     19 C          62.0900   86.8166    8.6952 C.3     1  UNL1        0.1089
     20 H          61.0605   84.5160    6.3573 H       1  UNL1        0.1189
     21 H          62.2778   84.2625    7.4656 H       1  UNL1        0.1189
     22 N          65.9279   94.1508   10.8400 N.pl3   1  UNL1       -0.3010
     23 C          66.7564   94.1704    9.5897 C.3     1  UNL1        0.1231
     24 C          67.3495   95.4594    9.1032 C.3     1  UNL1        0.1636
     25 O          67.1140   96.7288    9.8670 O.3     1  UNL1       -0.3501
     26 C          66.2856   96.7091   11.1173 C.3     1  UNL1        0.1636
     27 C          65.6925   95.4201   11.6038 C.3     1  UNL1        0.1231
     28 C          62.0779   86.8988   12.3692 C.3     1  UNL1        0.1391
     29 C          63.4678   84.9044   13.2860 C.ar    1  UNL1        0.0663
     30 C          64.1925   83.6114   13.0558 C.ar    1  UNL1        0.0100
     31 C          64.2521   83.0199   11.6787 C.ar    1  UNL1        0.0007
     32 C          63.5869   83.7213   10.5317 C.ar    1  UNL1       -0.0002
     33 C          62.8622   85.0143   10.7618 C.ar    1  UNL1       -0.0017
     34 C          62.8026   85.6059   12.1390 C.ar    1  UNL1        0.0102
     35 N          63.3486   86.0875   16.0403 N.1     1  UNL1       -0.1908
     36 C          63.4082   85.4960   14.6631 C.1     1  UNL1        0.1002
@<TRIPOS>BOND
     1    35    36    3
     2    36    29    1
     3    29    30   ar
     4    30    31   ar
     5    31    32   ar
     6    32    33   ar
     7    33    34   ar
     8    34    28    1
     9    28     1    1
    10     1     2   ar
    11     2    13    1
    12    13    14    1
    13    14    15    1
    14    15    16    1
    15    16    17    1
    16    17    18    1
    17    17    19    1
    18     2     3   ar
    19     3     4   ar
    20     4     5   ar
    21     5     6   ar
    22     6    22    1
    23    22    23    1
    24    23    24    1
    25    24    25    1
    26    25    26    1
    27    26    27    1
    28     6     7   ar
    29     7     8    1
    30     7     9   ar
    31     9    10   ar
    32    10    11   ar
    33    11    12    2
    34    34    29   ar
    35    11     1   ar
    36    19    13    1
    37    10     4   ar
    38    27    22    1
    39    18    20    1
    40    18    21    1
@<TRIPOS>MOLECULE
*****
 36 40 0 0 0
SMALL
GASTEIGER

@<TRIPOS>ATOM
      1 N          62.1062   86.7034   11.3633 N.ar    1  UNL1       -0.2644
      2 C          62.8008   86.1192   12.5575 C.ar    1  UNL1        0.2037
      3 N          63.6576   86.9904   13.4274 N.ar    1  UNL1       -0.2148
      4 C          63.8200   88.4459   13.1031 C.ar    1  UNL1        0.0901
      5 C          64.6768   89.3171   13.9729 C.ar    1  UNL1        0.0361
      6 C          64.8391   90.7726   13.6486 C.ar    1  UNL1        0.0773
      7 C          64.1446   91.3568   12.4543 C.ar    1  UNL1        0.1536
      8 F          64.3069   92.8123   12.1300 F       1  UNL1       -0.2029
      9 C          63.2877   90.4856   11.5844 C.ar    1  UNL1        0.0372
     10 C          63.1254   89.0302   11.9088 C.ar    1  UNL1        0.0763
     11 C          62.2685   88.1589   11.0389 C.ar    1  UNL1        0.2646
     12 O          61.5739   88.7431    9.8447 O.2     1  UNL1       -0.2668
     13 N          62.6384   84.6636   12.8819 N.pl3   1  UNL1       -0.2781
     14 C          62.2382   84.2436   14.2651 C.3     1  UNL1        0.0937
     15 C          62.0758   82.7881   14.5894 C.3     1  UNL1        0.0229
     16 C          62.3138   81.7527   13.5304 C.3     1  UNL1        0.0190
     17 C          62.7140   82.1727   12.1472 C.3     1  UNL1        0.0710
     18 N          62.9520   81.1373   11.0883 N.3     1  UNL1       -0.3208
     19 C          62.8764   83.6282   11.8229 C.3     1  UNL1        0.1089
     20 H          62.7977   80.2084   11.4803 H       1  UNL1        0.1189
     21 H          63.9123   81.2093   10.7521 H       1  UNL1        0.1189
     22 N          65.6960   91.6438   14.5185 N.pl3   1  UNL1       -0.3010
     23 C          65.2369   92.0080   15.8993 C.3     1  UNL1        0.1231
     24 C          66.0937   92.8792   16.7692 C.3     1  UNL1        0.1636
     25 O          67.4098   93.3864   16.2583 O.3     1  UNL1       -0.3501
     26 C          67.8689   93.0222   14.8775 C.3     1  UNL1        0.1636
     27 C          67.0120   92.1509   14.0076 C.3     1  UNL1        0.1231
     28 C          61.2493   85.8321   10.4934 C.3     1  UNL1        0.1391
     29 C          60.8737   85.7583    7.9237 C.ar    1  UNL1        0.0663
     30 C          61.3445   85.3730    6.5525 C.ar    1  UNL1        0.0100
     31 C          62.6616   84.6764    6.3800 C.ar    1  UNL1        0.0007
     32 C          63.5080   84.3650    7.5786 C.ar    1  UNL1       -0.0002
     33 C          63.0373   84.7502    8.9498 C.ar    1  UNL1       -0.0017
     34 C          61.7201   85.4469    9.1222 C.ar    1  UNL1        0.0102
     35 N          58.2394   87.1516    8.2687 N.1     1  UNL1       -0.1908
     36 C          59.5566   86.4549    8.0962 C.1     1  UNL1        0.1002
@<TRIPOS>BOND
     1    35    36    3
     2    36    29    1
     3    29    30   ar
     4    30    31   ar
     5    31    32   ar
     6    32    33   ar
     7    33    34   ar
     8    34    28    1
     9    28     1    1
    10     1     2   ar
    11     2    13    1
    12    13    14    1
    13    14    15    1
    14    15    16    1
    15    16    17    1
    16    17    18    1
    17    17    19    1
    18     2     3   ar
    19     3     4   ar
    20     4     5   ar
    21     5     6   ar
    22     6    22    1
    23    22    23    1
    24    23    24    1
    25    24    25    1
    26    25    26    1
    27    26    27    1
    28     6     7   ar
    29     7     8    1
    30     7     9   ar
    31     9    10   ar
    32    10    11   ar
    33    11    12    2
    34    34    29   ar
    35    11     1   ar
    36    19    13    1
    37    10     4   ar
    38    27    22    1
    39    18    20    1
    40    18    21    1
@<TRIPOS>MOLECULE
*****
 36 40 0 0 0
SMALL
GASTEIGER

@<TRIPOS>ATOM
      1 N          62.2034   88.2795   11.3579 N.ar    1  UNL1       -0.2644
      2 C          61.8184   89.0403   10.1238 C.ar    1  UNL1        0.2037
      3 N          62.4818   90.3490    9.8121 N.ar    1  UNL1       -0.2148
      4 C          63.5302   90.8970   10.7345 C.ar    1  UNL1        0.0901
      5 C          64.1935   92.2057   10.4227 C.ar    1  UNL1        0.0361
      6 C          65.2419   92.7535   11.3451 C.ar    1  UNL1        0.0773
      7 C          65.6268   91.9927   12.5792 C.ar    1  UNL1        0.1536
      8 F          66.6752   92.5407   13.5016 F       1  UNL1       -0.2029
      9 C          64.9635   90.6840   12.8909 C.ar    1  UNL1        0.0372
     10 C          63.9151   90.1362   11.9686 C.ar    1  UNL1        0.0763
     11 C          63.2517   88.8274   12.2803 C.ar    1  UNL1        0.2646
     12 O          63.6367   88.0666   13.5143 O.2     1  UNL1       -0.2668
     13 N          60.7701   88.4924    9.2014 N.pl3   1  UNL1       -0.2781
     14 C          60.2375   87.1058    9.4107 C.3     1  UNL1        0.0937
     15 C          59.1892   86.5579    8.4884 C.3     1  UNL1        0.0229
     16 C          58.6734   87.3966    7.3567 C.3     1  UNL1        0.0190
     17 C          59.2060   88.7831    7.1474 C.3     1  UNL1        0.0710
     18 N          58.6902   89.6218    6.0157 N.3     1  UNL1       -0.3208
     19 C          60.2543   89.3310    8.0698 C.3     1  UNL1        0.1089
     20 H          57.9882   89.0958    5.4953 H       1  UNL1        0.1189
     21 H          59.4616   89.8661    5.3946 H       1  UNL1        0.1189
     22 N          65.9053   94.0623   11.0334 N.pl3   1  UNL1       -0.3010
     23 C          65.8106   95.2013   12.0049 C.3     1  UNL1        0.1231
     24 C          66.4740   96.5100   11.6933 C.3     1  UNL1        0.1636
     25 O          67.2321   96.6798   10.4101 O.3     1  UNL1       -0.3501
     26 C          67.3267   95.5409    9.4385 C.3     1  UNL1        0.1636
     27 C          66.6633   94.2321    9.7502 C.3     1  UNL1        0.1231
     28 C          61.5400   86.9707   11.6696 C.3     1  UNL1        0.1391
     29 C          63.0038   84.9501   10.9458 C.ar    1  UNL1        0.0663
     30 C          63.8355   83.7541   11.3037 C.ar    1  UNL1        0.0100
     31 C          64.0350   83.3830   12.7433 C.ar    1  UNL1        0.0007
     32 C          63.4028   84.2077   13.8251 C.ar    1  UNL1       -0.0002
     33 C          62.5711   85.4037   13.4672 C.ar    1  UNL1       -0.0017
     34 C          62.3716   85.7748   12.0275 C.ar    1  UNL1        0.0102
     35 N          62.6049   85.6925    8.0666 N.1     1  UNL1       -0.1908
     36 C          62.8044   85.3212    9.5063 C.1     1  UNL1        0.1002
@<TRIPOS>BOND
     1    35    36    3
     2    36    29    1
     3    29    30   ar
     4    30    31   ar
     5    31    32   ar
     6    32    33   ar
     7    33    34   ar
     8    34    28    1
     9    28     1    1
    10     1     2   ar
    11     2    13    1
    12    13    14    1
    13    14    15    1
    14    15    16    1
    15    16    17    1
    16    17    18    1
    17    17    19    1
    18     2     3   ar
    19     3     4   ar
    20     4     5   ar
    21     5     6   ar
    22     6    22    1
    23    22    23    1
    24    23    24    1
    25    24    25    1
    26    25    26    1
    27    26    27    1
    28     6     7   ar
    29     7     8    1
    30     7     9   ar
    31     9    10   ar
    32    10    11   ar
    33    11    12    2
    34    34    29   ar
    35    11     1   ar
    36    19    13    1
    37    10     4   ar
    38    27    22    1
    39    18    20    1
    40    18    21    1
@<TRIPOS>MOLECULE
*****
 36 40 0 0 0
SMALL
GASTEIGER

@<TRIPOS>ATOM
      1 N          62.3779   87.0799   11.7586 N.ar    1  UNL1       -0.2644
      2 C          62.0909   87.8257   10.4892 C.ar    1  UNL1        0.2037
      3 N          62.6409   89.2070   10.2901 N.ar    1  UNL1       -0.2148
      4 C          63.4779   89.8425   11.3606 C.ar    1  UNL1        0.0901
      5 C          64.0278   91.2237   11.1615 C.ar    1  UNL1        0.0361
      6 C          64.8647   91.8592   12.2319 C.ar    1  UNL1        0.0773
      7 C          65.1516   91.1134   13.5013 C.ar    1  UNL1        0.1536
      8 F          65.9886   91.7489   14.5718 F       1  UNL1       -0.2029
      9 C          64.6017   89.7321   13.7004 C.ar    1  UNL1        0.0372
     10 C          63.7648   89.0967   12.6300 C.ar    1  UNL1        0.0763
     11 C          63.2147   87.7154   12.8290 C.ar    1  UNL1        0.2646
     12 O          63.5017   86.9696   14.0985 O.2     1  UNL1       -0.2668
     13 N          61.2540   87.1902    9.4188 N.pl3   1  UNL1       -0.2781
     14 C          59.7943   87.5190    9.3138 C.3     1  UNL1        0.0937
     15 C          58.9574   86.8835    8.2435 C.3     1  UNL1        0.0229
     16 C          59.5803   85.9192    7.2780 C.3     1  UNL1        0.0190
     17 C          61.0400   85.5904    7.3829 C.3     1  UNL1        0.0710
     18 N          61.6629   84.6260    6.4175 N.3     1  UNL1       -0.3208
     19 C          61.8769   86.2259    8.4533 C.3     1  UNL1        0.1089
     20 H          60.9540   84.2939    5.7636 H       1  UNL1        0.1189
     21 H          62.0502   83.8339    6.9303 H       1  UNL1        0.1189
     22 N          65.4148   93.2405   12.0329 N.pl3   1  UNL1       -0.3010
     23 C          66.0888   93.9503   13.1695 C.3     1  UNL1        0.1231
     24 C          66.6388   95.3315   12.9705 C.3     1  UNL1        0.1636
     25 O          66.5148   96.0030   11.6349 O.3     1  UNL1       -0.3501
     26 C          65.8408   95.2932   10.4983 C.3     1  UNL1        0.1636
     27 C          65.2907   93.9119   10.6973 C.3     1  UNL1        0.1231
     28 C          61.8278   85.6986   11.9577 C.3     1  UNL1        0.1391
     29 C          63.5685   83.7699   11.9630 C.ar    1  UNL1        0.0663
     30 C          64.3688   82.7444   12.7099 C.ar    1  UNL1        0.0100
     31 C          64.2288   82.6221   14.1983 C.ar    1  UNL1        0.0007
     32 C          63.2883   83.5253   14.9399 C.ar    1  UNL1       -0.0002
     33 C          62.4880   84.5508   14.1930 C.ar    1  UNL1       -0.0017
     34 C          62.6281   84.6731   12.7045 C.ar    1  UNL1        0.0102
     35 N          63.8487   84.0147    8.9861 N.1     1  UNL1       -0.1908
     36 C          63.7086   83.8923   10.4746 C.1     1  UNL1        0.1002
@<TRIPOS>BOND
     1    35    36    3
     2    36    29    1
     3    29    30   ar
     4    30    31   ar
     5    31    32   ar
     6    32    33   ar
     7    33    34   ar
     8    34    28    1
     9    28     1    1
    10     1     2   ar
    11     2    13    1
    12    13    14    1
    13    14    15    1
    14    15    16    1
    15    16    17    1
    16    17    18    1
    17    17    19    1
    18     2     3   ar
    19     3     4   ar
    20     4     5   ar
    21     5     6   ar
    22     6    22    1
    23    22    23    1
    24    23    24    1
    25    24    25    1
    26    25    26    1
    27    26    27    1
    28     6     7   ar
    29     7     8    1
    30     7     9   ar
    31     9    10   ar
    32    10    11   ar
    33    11    12    2
    34    34    29   ar
    35    11     1   ar
    36    19    13    1
    37    10     4   ar
    38    27    22    1
    39    18    20    1
    40    18    21    1
@<TRIPOS>MOLECULE
*****
 36 40 0 0 0
SMALL
GASTEIGER

@<TRIPOS>ATOM
      1 N          56.9908   94.8115   -3.3389 N.ar    1  UNL1       -0.2644
      2 C          57.5569   93.4665   -3.6859 C.ar    1  UNL1        0.2037
      3 N          58.5646   92.8209   -2.7816 N.ar    1  UNL1       -0.2148
      4 C          59.0062   93.5204   -1.5302 C.ar    1  UNL1        0.0901
      5 C          60.0139   92.8748   -0.6260 C.ar    1  UNL1        0.0361
      6 C          60.4554   93.5742    0.6253 C.ar    1  UNL1        0.0773
      7 C          59.8893   94.9192    0.9723 C.ar    1  UNL1        0.1536
      8 F          60.3309   95.6187    2.2237 F       1  UNL1       -0.2029
      9 C          58.8816   95.5648    0.0681 C.ar    1  UNL1        0.0372
     10 C          58.4401   94.8654   -1.1832 C.ar    1  UNL1        0.0763
     11 C          57.4323   95.5109   -2.0876 C.ar    1  UNL1        0.2646
     12 O          56.8662   96.8560   -1.7406 O.2     1  UNL1       -0.2668
     13 N          57.1153   92.7670   -4.9372 N.pl3   1  UNL1       -0.2781
     14 C          57.8584   92.9870   -6.2215 C.3     1  UNL1        0.0937
     15 C          57.4168   92.2876   -7.4727 C.3     1  UNL1        0.0229
     16 C          56.2321   91.3682   -7.4398 C.3     1  UNL1        0.0190
     17 C          55.4890   91.1482   -6.1555 C.3     1  UNL1        0.0710
     18 N          54.3042   90.2288   -6.1225 N.3     1  UNL1       -0.3208
     19 C          55.9306   91.8476   -4.9043 C.3     1  UNL1        0.1089
     20 H          54.1473   89.8429   -7.0536 H       1  UNL1        0.1189
     21 H          53.4783   90.7489   -5.8264 H       1  UNL1        0.1189
     22 N          61.4632   92.9286    1.5297 N.pl3   1  UNL1       -0.3010
     23 C          61.0164   92.2687    2.8004 C.3     1  UNL1        0.1231
     24 C          62.0240   91.6231    3.7048 C.3     1  UNL1        0.1636
     25 O          63.4786   91.6375    3.3384 O.3     1  UNL1       -0.3501
     26 C          63.9254   92.2975    2.0676 C.3     1  UNL1        0.1636
     27 C          62.9176   92.9430    1.1633 C.3     1  UNL1        0.1231
     28 C          55.9830   95.4571   -4.2432 C.3     1  UNL1        0.1391
     29 C          53.5278   96.1506   -4.7337 C.ar    1  UNL1        0.0663
     30 C          52.1106   96.3247   -4.2742 C.ar    1  UNL1        0.0100
     31 C          51.7314   95.9793   -2.8646 C.ar    1  UNL1        0.0007
     32 C          52.7694   95.4598   -1.9145 C.ar    1  UNL1       -0.0002
     33 C          54.1866   95.2857   -2.3740 C.ar    1  UNL1       -0.0017
     34 C          54.5658   95.6312   -3.7837 C.ar    1  UNL1        0.0102
     35 N          54.2862   96.8415   -7.5529 N.1     1  UNL1       -0.1908
     36 C          53.9070   96.4960   -6.1432 C.1     1  UNL1        0.1002
@<TRIPOS>BOND
     1    35    36    3
     2    36    29    1
     3    29    30   ar
     4    30    31   ar
     5    31    32   ar
     6    32    33   ar
     7    33    34   ar
     8    34    28    1
     9    28     1    1
    10     1     2   ar
    11     2    13    1
    12    13    14    1
    13    14    15    1
    14    15    16    1
    15    16    17    1
    16    17    18    1
    17    17    19    1
    18     2     3   ar
    19     3     4   ar
    20     4     5   ar
    21     5     6   ar
    22     6    22    1
    23    22    23    1
    24    23    24    1
    25    24    25    1
    26    25    26    1
    27    26    27    1
    28     6     7   ar
    29     7     8    1
    30     7     9   ar
    31     9    10   ar
    32    10    11   ar
    33    11    12    2
    34    34    29   ar
    35    11     1   ar
    36    19    13    1
    37    10     4   ar
    38    27    22    1
    39    18    20    1
    40    18    21    1
