@<TRIPOS>MOLECULE
*****
 41 45 0 0 0
SMALL
GASTEIGER

@<TRIPOS>ATOM
      1 C          62.7667   94.0679    0.1759 C.ar    1  UNL1        0.0096
      2 C          64.1299   94.6834    0.2888 C.ar    1  UNL1        0.0355
      3 S          64.5879   95.0516   -1.0912 S.2     1  UNL1       -0.0863
      4 C          63.5079   94.6635   -2.0571 C.ar    1  UNL1        0.0337
      5 C          63.4039   94.7852   -3.5485 C.ar    1  UNL1        0.0283
      6 C          62.1743   94.2990   -4.2568 C.ar    1  UNL1        0.1008
      7 N          61.0487   93.6910   -3.4737 N.ar    1  UNL1       -0.2296
      8 C          61.1527   93.5693   -1.9822 C.ar    1  UNL1        0.1258
      9 N          60.0270   92.9614   -1.1990 N.pl3   1  UNL1       -0.3426
     10 C          62.3822   94.0556   -1.2739 C.ar    1  UNL1        0.0377
     11 H          59.2200   92.6422   -1.6639 H       1  UNL1        0.1437
     12 H          60.0952   92.8815   -0.2202 H       1  UNL1        0.1437
     13 C          60.2686   92.5284    3.5877 C.ar    1  UNL1        0.0516
     14 C          61.6006   91.9051    3.2925 C.ar    1  UNL1        0.0147
     15 C          62.4334   92.4182    2.1552 C.ar    1  UNL1        0.0013
     16 C          61.9340   93.5547    1.3132 C.ar    1  UNL1        0.0007
     17 C          60.6020   94.1781    1.6084 C.ar    1  UNL1        0.0013
     18 C          59.7693   93.6649    2.7457 C.ar    1  UNL1        0.0147
     19 N          59.0662   90.3159    6.6550 N.am    1  UNL1       -0.2681
     20 C          59.8989   90.8290    5.5177 C.2     1  UNL1        0.3082
     21 O          61.1944   90.1560    5.1733 O.2     1  UNL1       -0.2522
     22 N          59.4360   92.0153    4.7250 N.am    1  UNL1       -0.2681
     23 H          58.2160   90.7577    6.8811 H       1  UNL1        0.1564
     24 H          58.5857   92.4570    4.9511 H       1  UNL1        0.1564
     25 C          61.8079   88.3300   10.5971 C.3     1  UNL1        0.0311
     26 C          60.8999   88.1367    9.4188 C.ar    1  UNL1       -0.0206
     27 C          60.4548   86.7571    9.0334 C.ar    1  UNL1       -0.0042
     28 C          59.5468   86.5637    7.8552 C.ar    1  UNL1        0.0010
     29 C          59.0840   87.7500    7.0624 C.ar    1  UNL1        0.0147
     30 C          59.5291   89.1296    7.4479 C.ar    1  UNL1        0.0513
     31 C          60.4371   89.3229    8.6261 C.ar    1  UNL1        0.0105
     32 C          64.5296   95.3932   -4.3317 C.ar    1  UNL1        0.0416
     33 C          65.3244   96.6031   -3.9388 C.ar    1  UNL1        0.1217
     34 N          66.3441   96.8557   -5.0095 N.ar    1  UNL1       -0.1676
     35 N          66.1795   95.8018   -6.0642 N.ar    1  UNL1       -0.2469
     36 C          65.0580   94.8979   -5.6453 C.ar    1  UNL1        0.0968
     37 C          66.9934   95.6742   -7.3177 C.3     1  UNL1        0.1565
     38 C          68.4645   95.3942   -7.2315 C.3     1  UNL1        0.1349
     39 C          69.4358   96.5268   -7.0779 C.3     1  UNL1        0.0339
     40 O          68.9643   93.9815   -7.2989 O.3     1  UNL1       -0.3824
     41 H          69.9317   93.9771   -7.2290 H       1  UNL1        0.2104
@<TRIPOS>BOND
     1    25    26    1
     2    26    27   ar
     3    27    28   ar
     4    28    29   ar
     5    29    30   ar
     6    30    19    1
     7    19    20   am
     8    20    21    2
     9    20    22   am
    10    22    13    1
    11    13    14   ar
    12    14    15   ar
    13    15    16   ar
    14    16     1    1
    15     1     2   ar
    16     2     3   ar
    17     3     4   ar
    18     4     5   ar
    19     5    32    1
    20    32    33   ar
    21    33    34   ar
    22    34    35   ar
    23    35    37    1
    24    37    38    1
    25    38    39    1
    26    38    40    1
    27    35    36   ar
    28     5     6   ar
    29     6     7   ar
    30     7     8   ar
    31     8     9    1
    32     8    10   ar
    33    16    17   ar
    34    17    18   ar
    35    30    31   ar
    36    31    26   ar
    37    18    13   ar
    38    10     1   ar
    39    10     4   ar
    40    36    32   ar
    41    19    23    1
    42    22    24    1
    43    40    41    1
    44     9    11    1
    45     9    12    1
@<TRIPOS>MOLECULE
*****
 41 45 0 0 0
SMALL
GASTEIGER

@<TRIPOS>ATOM
      1 C          62.1914   93.6051   -0.4016 C.ar    1  UNL1        0.0096
      2 C          62.0431   92.9203   -1.7279 C.ar    1  UNL1        0.0355
      3 S          62.9227   93.6277   -2.7157 S.2     1  UNL1       -0.0863
      4 C          63.6147   94.7497   -2.0000 C.ar    1  UNL1        0.0337
      5 C          64.5979   95.7823   -2.4658 C.ar    1  UNL1        0.0283
      6 C          65.1292   96.8010   -1.5013 C.ar    1  UNL1        0.1008
      7 N          64.6772   96.7870   -0.0711 N.ar    1  UNL1       -0.2296
      8 C          63.6939   95.7544    0.3947 C.ar    1  UNL1        0.1258
      9 N          63.2420   95.7404    1.8249 N.pl3   1  UNL1       -0.3426
     10 C          63.1627   94.7358   -0.5698 C.ar    1  UNL1        0.0377
     11 H          63.5906   96.4090    2.4579 H       1  UNL1        0.1437
     12 H          62.5966   95.0626    2.1306 H       1  UNL1        0.1437
     13 C          60.0912   92.4674    3.4122 C.ar    1  UNL1        0.0516
     14 C          61.5724   92.2689    3.2837 C.ar    1  UNL1        0.0147
     15 C          62.2726   92.6481    2.0124 C.ar    1  UNL1        0.0013
     16 C          61.4914   93.2259    0.8696 C.ar    1  UNL1        0.0007
     17 C          60.0101   93.4243    0.9981 C.ar    1  UNL1        0.0013
     18 C          59.3100   93.0451    2.2694 C.ar    1  UNL1        0.0147
     19 N          59.0938   90.4653    6.6903 N.am    1  UNL1       -0.2681
     20 C          59.7939   90.8445    5.4191 C.2     1  UNL1        0.3082
     21 O          60.8966   89.9801    4.8835 O.2     1  UNL1       -0.2522
     22 N          59.3912   92.0882    4.6835 N.am    1  UNL1       -0.2681
     23 H          58.3701   91.0326    7.0419 H       1  UNL1        0.1564
     24 H          58.6674   92.6555    5.0350 H       1  UNL1        0.1564
     25 C          61.8357   88.1474   10.4466 C.3     1  UNL1        0.0311
     26 C          60.8674   88.0627    9.3041 C.ar    1  UNL1       -0.0206
     27 C          60.3018   86.7343    8.8973 C.ar    1  UNL1       -0.0042
     28 C          59.3335   86.6496    7.7548 C.ar    1  UNL1        0.0010
     29 C          58.9309   87.8932    7.0192 C.ar    1  UNL1        0.0147
     30 C          59.4965   89.2216    7.4260 C.ar    1  UNL1        0.0513
     31 C          60.4648   89.3063    8.5685 C.ar    1  UNL1        0.0105
     32 C          65.0498   95.7963   -3.8960 C.ar    1  UNL1        0.0416
     33 C          64.4147   95.0457   -5.0288 C.ar    1  UNL1        0.1217
     34 N          65.1886   95.3488   -6.2774 N.ar    1  UNL1       -0.1676
     35 N          66.3021   96.2868   -5.9164 N.ar    1  UNL1       -0.2469
     36 C          66.2164   96.5634   -4.4446 C.ar    1  UNL1        0.0968
     37 C          67.3223   96.8494   -6.8612 C.3     1  UNL1        0.1565
     38 C          68.6214   96.1312   -7.0769 C.3     1  UNL1        0.1349
     39 C          68.6216   94.6888   -7.4885 C.3     1  UNL1        0.0339
     40 O          69.9202   96.8555   -6.8811 O.3     1  UNL1       -0.3824
     41 H          70.6576   96.2510   -7.0597 H       1  UNL1        0.2104
@<TRIPOS>BOND
     1    25    26    1
     2    26    27   ar
     3    27    28   ar
     4    28    29   ar
     5    29    30   ar
     6    30    19    1
     7    19    20   am
     8    20    21    2
     9    20    22   am
    10    22    13    1
    11    13    14   ar
    12    14    15   ar
    13    15    16   ar
    14    16     1    1
    15     1     2   ar
    16     2     3   ar
    17     3     4   ar
    18     4     5   ar
    19     5    32    1
    20    32    33   ar
    21    33    34   ar
    22    34    35   ar
    23    35    37    1
    24    37    38    1
    25    38    39    1
    26    38    40    1
    27    35    36   ar
    28     5     6   ar
    29     6     7   ar
    30     7     8   ar
    31     8     9    1
    32     8    10   ar
    33    16    17   ar
    34    17    18   ar
    35    30    31   ar
    36    31    26   ar
    37    18    13   ar
    38    10     1   ar
    39    10     4   ar
    40    36    32   ar
    41    19    23    1
    42    22    24    1
    43    40    41    1
    44     9    11    1
    45     9    12    1
@<TRIPOS>MOLECULE
*****
 41 45 0 0 0
SMALL
GASTEIGER

@<TRIPOS>ATOM
      1 C          61.2158   87.0705    9.7629 C.ar    1  UNL1        0.0096
      2 C          61.0901   85.5762    9.7263 C.ar    1  UNL1        0.0355
      3 S          61.8377   85.0193   10.9014 S.2     1  UNL1       -0.0863
      4 C          62.4254   86.1693   11.6644 C.ar    1  UNL1        0.0337
      5 C          63.2608   86.2260   12.9088 C.ar    1  UNL1        0.0283
      6 C          63.7119   87.5504   13.4498 C.ar    1  UNL1        0.1008
      7 N          63.3276   88.8181   12.7461 N.ar    1  UNL1       -0.2296
      8 C          62.4921   88.7614   11.5015 C.ar    1  UNL1        0.1258
      9 N          62.1078   90.0292   10.7979 N.pl3   1  UNL1       -0.3426
     10 C          62.0410   87.4371   10.9607 C.ar    1  UNL1        0.0377
     11 H          62.4038   90.8984   11.1529 H       1  UNL1        0.1437
     12 H          61.5594   89.9920    9.9811 H       1  UNL1        0.1437
     13 C          59.4307   89.9486    6.7997 C.ar    1  UNL1        0.0516
     14 C          59.2014   88.4743    6.6450 C.ar    1  UNL1        0.0147
     15 C          59.7964   87.5149    7.6327 C.ar    1  UNL1        0.0013
     16 C          60.6208   88.0298    8.7752 C.ar    1  UNL1        0.0007
     17 C          60.8501   89.5041    8.9299 C.ar    1  UNL1        0.0013
     18 C          60.2551   90.4635    7.9422 C.ar    1  UNL1        0.0147
     19 N          59.0631   92.3642    3.6726 N.am    1  UNL1       -0.2681
     20 C          59.6582   91.4049    4.6603 C.2     1  UNL1        0.3082
     21 O          61.0757   90.9426    4.4963 O.2     1  UNL1       -0.2522
     22 N          58.8356   90.9079    5.8120 N.am    1  UNL1       -0.2681
     23 H          58.1327   92.6676    3.7802 H       1  UNL1        0.1564
     24 H          57.9053   91.2113    5.9196 H       1  UNL1        0.1564
     25 C          63.6661   93.7395    1.6925 C.3     1  UNL1        0.0311
     26 C          62.1871   93.5489    1.5308 C.ar    1  UNL1       -0.0206
     27 C          61.5306   93.8553    0.2174 C.ar    1  UNL1       -0.0042
     28 C          60.0515   93.6647    0.0556 C.ar    1  UNL1        0.0010
     29 C          59.2291   93.1677    1.2074 C.ar    1  UNL1        0.0147
     30 C          59.8857   92.8612    2.5208 C.ar    1  UNL1        0.0513
     31 C          61.3647   93.0519    2.6825 C.ar    1  UNL1        0.0105
     32 C          63.6451   84.9582   13.6125 C.ar    1  UNL1        0.0416
     33 C          64.5447   84.8513   14.8081 C.ar    1  UNL1        0.1217
     34 N          64.6529   83.4018   15.1786 N.ar    1  UNL1       -0.1676
     35 N          63.8203   82.6129   14.2120 N.ar    1  UNL1       -0.2469
     36 C          63.1974   83.5747   13.2441 C.ar    1  UNL1        0.0968
     37 C          63.6418   81.1235   14.2131 C.3     1  UNL1        0.1565
     38 C          62.4339   80.5124   13.5668 C.3     1  UNL1        0.1349
     39 C          61.0694   80.7674   14.1351 C.3     1  UNL1        0.0339
     40 O          62.5906   79.6463   12.3523 O.3     1  UNL1       -0.3824
     41 H          61.7189   79.3343   12.0630 H       1  UNL1        0.2104
@<TRIPOS>BOND
     1    25    26    1
     2    26    27   ar
     3    27    28   ar
     4    28    29   ar
     5    29    30   ar
     6    30    19    1
     7    19    20   am
     8    20    21    2
     9    20    22   am
    10    22    13    1
    11    13    14   ar
    12    14    15   ar
    13    15    16   ar
    14    16     1    1
    15     1     2   ar
    16     2     3   ar
    17     3     4   ar
    18     4     5   ar
    19     5    32    1
    20    32    33   ar
    21    33    34   ar
    22    34    35   ar
    23    35    37    1
    24    37    38    1
    25    38    39    1
    26    38    40    1
    27    35    36   ar
    28     5     6   ar
    29     6     7   ar
    30     7     8   ar
    31     8     9    1
    32     8    10   ar
    33    16    17   ar
    34    17    18   ar
    35    30    31   ar
    36    31    26   ar
    37    18    13   ar
    38    10     1   ar
    39    10     4   ar
    40    36    32   ar
    41    19    23    1
    42    22    24    1
    43    40    41    1
    44     9    11    1
    45     9    12    1
@<TRIPOS>MOLECULE
*****
 41 45 0 0 0
SMALL
GASTEIGER

@<TRIPOS>ATOM
      1 C          60.7610   87.4791    9.8573 C.ar    1  UNL1        0.0096
      2 C          60.4763   87.7510   11.3047 C.ar    1  UNL1        0.0355
      3 S          61.1943   86.7170   12.1204 S.2     1  UNL1       -0.0863
      4 C          61.9227   85.8061   11.1771 C.ar    1  UNL1        0.0337
      5 C          62.7952   84.6087   11.4111 C.ar    1  UNL1        0.0283
      6 C          63.3999   83.8822   10.2464 C.ar    1  UNL1        0.1008
      7 N          63.1321   84.3532    8.8477 N.ar    1  UNL1       -0.2296
      8 C          62.2595   85.5507    8.6137 C.ar    1  UNL1        0.1258
      9 N          61.9917   86.0218    7.2150 N.pl3   1  UNL1       -0.3426
     10 C          61.6549   86.2772    9.7784 C.ar    1  UNL1        0.0377
     11 H          62.3886   85.5450    6.4505 H       1  UNL1        0.1437
     12 H          61.4190   86.8077    7.0614 H       1  UNL1        0.1437
     13 C          59.2062   89.8529    6.3647 C.ar    1  UNL1        0.0516
     14 C          58.8489   88.4028    6.5046 C.ar    1  UNL1        0.0147
     15 C          59.3671   87.6115    7.6688 C.ar    1  UNL1        0.0013
     16 C          60.2427   88.2704    8.6931 C.ar    1  UNL1        0.0007
     17 C          60.6001   89.7204    8.5532 C.ar    1  UNL1        0.0013
     18 C          60.0818   90.5117    7.3890 C.ar    1  UNL1        0.0147
     19 N          59.1183   92.2271    3.1859 N.am    1  UNL1       -0.2681
     20 C          59.6366   91.4359    4.3501 C.2     1  UNL1        0.3082
     21 O          61.1034   91.4366    4.6639 O.2     1  UNL1       -0.2522
     22 N          58.6880   90.6441    5.2004 N.am    1  UNL1       -0.2681
     23 H          58.1556   92.2267    2.9799 H       1  UNL1        0.1564
     24 H          57.7253   90.6437    4.9944 H       1  UNL1        0.1564
     25 C          61.1311   96.7970    1.7488 C.3     1  UNL1        0.0311
     26 C          61.0733   95.3039    1.6169 C.ar    1  UNL1       -0.0206
     27 C          61.9641   94.6027    0.6346 C.ar    1  UNL1       -0.0042
     28 C          61.9063   93.1096    0.5028 C.ar    1  UNL1        0.0010
     29 C          60.9577   92.3178    1.3532 C.ar    1  UNL1        0.0147
     30 C          60.0669   93.0190    2.3354 C.ar    1  UNL1        0.0513
     31 C          60.1247   94.5121    2.4673 C.ar    1  UNL1        0.0105
     32 C          63.0630   84.1376   12.8099 C.ar    1  UNL1        0.0416
     33 C          63.7428   82.8569   13.1939 C.ar    1  UNL1        0.1217
     34 N          63.7980   82.7923   14.6915 N.ar    1  UNL1       -0.1676
     35 N          63.1524   84.0333   15.2330 N.ar    1  UNL1       -0.2469
     36 C          62.6981   84.8648   14.0701 C.ar    1  UNL1        0.0968
     37 C          62.9895   84.3816   16.6829 C.3     1  UNL1        0.1565
     38 C          62.2556   85.6291   17.0767 C.3     1  UNL1        0.1349
     39 C          62.9409   86.6710   17.9102 C.3     1  UNL1        0.0339
     40 O          60.8363   85.8347   16.6370 O.3     1  UNL1       -0.3824
     41 H          60.5133   86.6849   16.9742 H       1  UNL1        0.2104
@<TRIPOS>BOND
     1    25    26    1
     2    26    27   ar
     3    27    28   ar
     4    28    29   ar
     5    29    30   ar
     6    30    19    1
     7    19    20   am
     8    20    21    2
     9    20    22   am
    10    22    13    1
    11    13    14   ar
    12    14    15   ar
    13    15    16   ar
    14    16     1    1
    15     1     2   ar
    16     2     3   ar
    17     3     4   ar
    18     4     5   ar
    19     5    32    1
    20    32    33   ar
    21    33    34   ar
    22    34    35   ar
    23    35    37    1
    24    37    38    1
    25    38    39    1
    26    38    40    1
    27    35    36   ar
    28     5     6   ar
    29     6     7   ar
    30     7     8   ar
    31     8     9    1
    32     8    10   ar
    33    16    17   ar
    34    17    18   ar
    35    30    31   ar
    36    31    26   ar
    37    18    13   ar
    38    10     1   ar
    39    10     4   ar
    40    36    32   ar
    41    19    23    1
    42    22    24    1
    43    40    41    1
    44     9    11    1
    45     9    12    1
@<TRIPOS>MOLECULE
*****
 41 45 0 0 0
SMALL
GASTEIGER

@<TRIPOS>ATOM
      1 C          60.4409   88.0566    8.1597 C.ar    1  UNL1        0.0096
      2 C          60.1161   86.5924    8.1348 C.ar    1  UNL1        0.0355
      3 S          60.7525   85.9560    9.3348 S.2     1  UNL1       -0.0863
      4 C          61.4704   87.0269   10.1014 C.ar    1  UNL1        0.0337
      5 C          62.2747   86.9876   11.3670 C.ar    1  UNL1        0.0283
      6 C          62.8864   88.2466   11.9063 C.ar    1  UNL1        0.1008
      7 N          62.6938   89.5448   11.1801 N.ar    1  UNL1       -0.2296
      8 C          61.8895   89.5841    9.9145 C.ar    1  UNL1        0.1258
      9 N          61.6970   90.8823    9.1882 N.pl3   1  UNL1       -0.3426
     10 C          61.2779   88.3251    9.3752 C.ar    1  UNL1        0.0377
     11 H          62.0984   91.7086    9.5422 H       1  UNL1        0.1437
     12 H          61.1691   90.9081    8.3576 H       1  UNL1        0.1437
     13 C          59.1335   91.1080    5.1216 C.ar    1  UNL1        0.0516
     14 C          60.5940   90.8435    5.3385 C.ar    1  UNL1        0.0147
     15 C          61.0299   89.8264    6.3512 C.ar    1  UNL1        0.0013
     16 C          60.0051   89.0737    7.1470 C.ar    1  UNL1        0.0007
     17 C          58.5446   89.3382    6.9302 C.ar    1  UNL1        0.0013
     18 C          58.1088   90.3553    5.9175 C.ar    1  UNL1        0.0147
     19 N          59.2636   93.7353    2.1501 N.am    1  UNL1       -0.2681
     20 C          59.6993   92.7182    3.1628 C.2     1  UNL1        0.3082
     21 O          61.1366   92.2942    3.2294 O.2     1  UNL1       -0.2522
     22 N          58.6978   92.1251    4.1089 N.am    1  UNL1       -0.2681
     23 H          58.3203   94.0136    2.1064 H       1  UNL1        0.1564
     24 H          57.7544   92.4034    4.0652 H       1  UNL1        0.1564
     25 C          62.0237   93.4476   -2.2429 C.3     1  UNL1        0.0311
     26 C          61.6452   94.1846   -0.9925 C.ar    1  UNL1       -0.0206
     27 C          62.2682   95.5147   -0.6882 C.ar    1  UNL1       -0.0042
     28 C          61.8898   96.2517    0.5622 C.ar    1  UNL1        0.0010
     29 C          60.8882   95.6586    1.5083 C.ar    1  UNL1        0.0147
     30 C          60.2652   94.3285    1.2040 C.ar    1  UNL1        0.0513
     31 C          60.6437   93.5914   -0.0465 C.ar    1  UNL1        0.0105
     32 C          62.4672   85.6893   12.0932 C.ar    1  UNL1        0.0416
     33 C          62.7165   85.5302   13.5638 C.ar    1  UNL1        0.1217
     34 N          62.8477   84.0648   13.8559 N.ar    1  UNL1       -0.1676
     35 N          62.6795   83.3182   12.5658 N.ar    1  UNL1       -0.2469
     36 C          62.4444   84.3221   11.4764 C.ar    1  UNL1        0.0968
     37 C          62.7364   81.8290   12.3950 C.3     1  UNL1        0.1565
     38 C          62.3576   80.9285   13.5333 C.3     1  UNL1        0.1349
     39 C          60.9398   80.8931   14.0218 C.3     1  UNL1        0.0339
     40 O          63.3966   80.0634   14.1830 O.3     1  UNL1       -0.3824
     41 H          62.9881   79.5475   14.8957 H       1  UNL1        0.2104
@<TRIPOS>BOND
     1    25    26    1
     2    26    27   ar
     3    27    28   ar
     4    28    29   ar
     5    29    30   ar
     6    30    19    1
     7    19    20   am
     8    20    21    2
     9    20    22   am
    10    22    13    1
    11    13    14   ar
    12    14    15   ar
    13    15    16   ar
    14    16     1    1
    15     1     2   ar
    16     2     3   ar
    17     3     4   ar
    18     4     5   ar
    19     5    32    1
    20    32    33   ar
    21    33    34   ar
    22    34    35   ar
    23    35    37    1
    24    37    38    1
    25    38    39    1
    26    38    40    1
    27    35    36   ar
    28     5     6   ar
    29     6     7   ar
    30     7     8   ar
    31     8     9    1
    32     8    10   ar
    33    16    17   ar
    34    17    18   ar
    35    30    31   ar
    36    31    26   ar
    37    18    13   ar
    38    10     1   ar
    39    10     4   ar
    40    36    32   ar
    41    19    23    1
    42    22    24    1
    43    40    41    1
    44     9    11    1
    45     9    12    1
@<TRIPOS>MOLECULE
*****
 41 45 0 0 0
SMALL
GASTEIGER

@<TRIPOS>ATOM
      1 C          63.1309   87.0370   12.5066 C.ar    1  UNL1        0.0096
      2 C          62.4259   86.2769   11.4225 C.ar    1  UNL1        0.0355
      3 S          62.3028   84.8483   11.8630 S.2     1  UNL1       -0.0863
      4 C          62.9317   84.7255   13.2192 C.ar    1  UNL1        0.0337
      5 C          63.1045   83.5567   14.1434 C.ar    1  UNL1        0.0283
      6 C          63.7891   83.7406   15.4654 C.ar    1  UNL1        0.1008
      7 N          64.3009   85.0934   15.8631 N.ar    1  UNL1       -0.2296
      8 C          64.1281   86.2622   14.9389 C.ar    1  UNL1        0.1258
      9 N          64.6399   87.6149   15.3367 N.pl3   1  UNL1       -0.3426
     10 C          63.4435   86.0782   13.6170 C.ar    1  UNL1        0.0377
     11 H          65.0892   87.7356   16.2043 H       1  UNL1        0.1437
     12 H          64.5265   88.3820   14.7301 H       1  UNL1        0.1437
     13 C          64.1324   91.4237   12.4394 C.ar    1  UNL1        0.0516
     14 C          63.2359   90.8428   11.3864 C.ar    1  UNL1        0.0147
     15 C          62.9020   89.3806   11.4087 C.ar    1  UNL1        0.0013
     16 C          63.4647   88.4992   12.4842 C.ar    1  UNL1        0.0007
     17 C          64.3612   89.0801   13.5372 C.ar    1  UNL1        0.0013
     18 C          64.6951   90.5423   13.5148 C.ar    1  UNL1        0.0147
     19 N          65.4417   94.9523   11.1809 N.am    1  UNL1       -0.2681
     20 C          65.1079   93.4901   11.2033 C.2     1  UNL1        0.3082
     21 O          65.4159   92.6321   10.0121 O.2     1  UNL1       -0.2522
     22 N          64.4662   92.8859   12.4170 N.am    1  UNL1       -0.2681
     23 H          65.2396   95.5154   11.9628 H       1  UNL1        0.1564
     24 H          64.2641   93.4490   13.1989 H       1  UNL1        0.1564
     25 C          65.0534   96.8551    6.3613 C.3     1  UNL1        0.0311
     26 C          65.8894   96.5080    7.5574 C.ar    1  UNL1       -0.0206
     27 C          67.3670   96.7651    7.5399 C.ar    1  UNL1       -0.0042
     28 C          68.2030   96.4180    8.7360 C.ar    1  UNL1        0.0010
     29 C          67.5612   95.8137    9.9496 C.ar    1  UNL1        0.0147
     30 C          66.0835   95.5566    9.9672 C.ar    1  UNL1        0.0513
     31 C          65.2476   95.9037    8.7711 C.ar    1  UNL1        0.0105
     32 C          62.5927   82.2040   13.7456 C.ar    1  UNL1        0.0416
     33 C          61.3165   81.5710   14.2153 C.ar    1  UNL1        0.1217
     34 N          61.2023   80.2226   13.5683 N.ar    1  UNL1       -0.1676
     35 N          62.4079   80.0221   12.6987 N.ar    1  UNL1       -0.2469
     36 C          63.2673   81.2467   12.8082 C.ar    1  UNL1        0.0968
     37 C          62.7026   78.8100   11.8657 C.3     1  UNL1        0.1565
     38 C          62.9916   78.9584   10.4013 C.3     1  UNL1        0.1349
     39 C          62.7193   80.2622    9.7115 C.3     1  UNL1        0.0339
     40 O          63.5528   77.8030    9.6268 O.3     1  UNL1       -0.3824
     41 H          63.6797   78.0651    8.7015 H       1  UNL1        0.2104
@<TRIPOS>BOND
     1    25    26    1
     2    26    27   ar
     3    27    28   ar
     4    28    29   ar
     5    29    30   ar
     6    30    19    1
     7    19    20   am
     8    20    21    2
     9    20    22   am
    10    22    13    1
    11    13    14   ar
    12    14    15   ar
    13    15    16   ar
    14    16     1    1
    15     1     2   ar
    16     2     3   ar
    17     3     4   ar
    18     4     5   ar
    19     5    32    1
    20    32    33   ar
    21    33    34   ar
    22    34    35   ar
    23    35    37    1
    24    37    38    1
    25    38    39    1
    26    38    40    1
    27    35    36   ar
    28     5     6   ar
    29     6     7   ar
    30     7     8   ar
    31     8     9    1
    32     8    10   ar
    33    16    17   ar
    34    17    18   ar
    35    30    31   ar
    36    31    26   ar
    37    18    13   ar
    38    10     1   ar
    39    10     4   ar
    40    36    32   ar
    41    19    23    1
    42    22    24    1
    43    40    41    1
    44     9    11    1
    45     9    12    1
