@<TRIPOS>MOLECULE
*****
 32 35 0 0 0
SMALL
GASTEIGER

@<TRIPOS>ATOM
      1 N          62.6678   84.9350   11.9592 N.pl3   1  UNL1       -0.2736
      2 C          63.3867   85.8837   12.8719 C.3     1  UNL1        0.1082
      3 C          63.1597   87.2768   12.3643 C.3     1  UNL1        0.1550
      4 C          63.6243   88.6140   12.8604 C.2     1  UNL1        0.2922
      5 O          64.4835   88.7018   14.0869 O.2     1  UNL1       -0.2563
      6 N          63.2297   89.8634   12.1300 N.am    1  UNL1       -0.1448
      7 C          63.6944   91.2006   12.6261 C.3     1  UNL1        0.2159
      8 C          62.3706   89.7756   10.9036 C.2     1  UNL1        0.3732
      9 N          61.9761   91.0250   10.1732 N.pl3   1  UNL1       -0.2512
     10 N          61.9060   88.4385   10.4075 N.2     1  UNL1       -0.1015
     11 C          62.3005   87.1891   11.1378 C.3     1  UNL1        0.1994
     12 C          61.9965   85.7417   10.8875 C.3     1  UNL1        0.1382
     13 H          62.2810   91.9026   10.4988 H       1  UNL1        0.2412
     14 H          61.4122   90.9673    9.3682 H       1  UNL1        0.2412
     15 C          63.0911   81.0803   11.1149 C.ar    1  UNL1        0.2569
     16 N          63.1316   82.5737   10.9798 N.ar    1  UNL1       -0.1768
     17 C          62.6273   83.4416   12.0944 C.ar    1  UNL1        0.2226
     18 N          62.0826   82.8162   13.3442 N.ar    1  UNL1       -0.2155
     19 C          62.0421   81.3228   13.4794 C.ar    1  UNL1        0.0942
     20 C          61.4974   80.6974   14.7292 C.3     1  UNL1        0.0548
     21 C          62.5464   80.4549   12.3648 C.ar    1  UNL1        0.2065
     22 F          62.5059   78.9615   12.5000 F       1  UNL1       -0.1980
     23 C          62.7263   79.1227    9.4462 C.3     1  UNL1        0.2543
     24 O          63.5954   80.2124   10.0003 O.3     1  UNL1       -0.4545
     25 C          61.4419   86.9457    9.9322 C.ar    1  UNL1        0.0705
     26 C          60.0071   87.3832    9.9327 C.ar    1  UNL1        0.1415
     27 F          59.4309   88.0641   11.1386 F       1  UNL1       -0.2043
     28 C          59.1484   87.1398    8.7271 C.ar    1  UNL1        0.0296
     29 C          59.7246   86.4589    7.5211 C.ar    1  UNL1        0.0046
     30 C          61.1594   86.0214    7.5207 C.ar    1  UNL1        0.0296
     31 C          62.0180   86.2648    8.7263 C.ar    1  UNL1        0.1415
     32 F          63.4528   85.8273    8.7259 F       1  UNL1       -0.2043
@<TRIPOS>BOND
     1    23    24    1
     2    24    15    1
     3    15    16   ar
     4    16    17   ar
     5    17     1    1
     6     1     2    1
     7     3     2    1
     8     3     4    1
     9     4     5    2
    10     4     6   am
    11     6     7    1
    12     6     8    1
    13     8     9    1
    14     8    10    2
    15    10    11    1
    16    11    25    1
    17    25    26   ar
    18    26    27    1
    19    26    28   ar
    20    28    29   ar
    21    29    30   ar
    22    30    31   ar
    23    31    32    1
    24    11    12    1
    25    17    18   ar
    26    18    19   ar
    27    19    20    1
    28    19    21   ar
    29    21    22    1
    30    21    15   ar
    31    12     1    1
    32    11     3    1
    33    31    25   ar
    34     9    13    1
    35     9    14    1
@<TRIPOS>MOLECULE
*****
 32 35 0 0 0
SMALL
GASTEIGER

@<TRIPOS>ATOM
      1 N          62.5815   84.8998   11.9668 N.pl3   1  UNL1       -0.2736
      2 C          63.3136   85.8358   12.8821 C.3     1  UNL1        0.1082
      3 C          63.1252   87.2313   12.3653 C.3     1  UNL1        0.1550
      4 C          63.6167   88.5595   12.8595 C.2     1  UNL1        0.2922
      5 O          64.4653   88.6332   14.0942 O.2     1  UNL1       -0.2563
      6 N          63.2595   89.8142   12.1189 N.am    1  UNL1       -0.1448
      7 C          63.7510   91.1425   12.6131 C.3     1  UNL1        0.2159
      8 C          62.4110   89.7406   10.8843 C.2     1  UNL1        0.3732
      9 N          62.0539   90.9953   10.1437 N.pl3   1  UNL1       -0.2512
     10 N          61.9195   88.4124   10.3901 N.2     1  UNL1       -0.1015
     11 C          62.2766   87.1578   11.1306 C.3     1  UNL1        0.1994
     12 C          61.9406   85.7168   10.8843 C.3     1  UNL1        0.1382
     13 H          62.3764   91.8670   10.4680 H       1  UNL1        0.2412
     14 H          61.4969   90.9469    9.3333 H       1  UNL1        0.2412
     15 C          61.7396   81.3120   13.4395 C.ar    1  UNL1        0.2569
     16 N          61.8172   82.8032   13.2972 N.ar    1  UNL1       -0.1768
     17 C          62.5039   83.4086   12.1090 C.ar    1  UNL1        0.2226
     18 N          63.1130   82.5227   11.0629 N.ar    1  UNL1       -0.2155
     19 C          63.0353   81.0315   11.2052 C.ar    1  UNL1        0.0942
     20 C          63.6444   80.1456   10.1592 C.3     1  UNL1        0.0548
     21 C          62.3486   80.4261   12.3935 C.ar    1  UNL1        0.2065
     22 F          62.2710   78.9349   12.5356 F       1  UNL1       -0.1980
     23 C          59.6735   80.1346   14.4860 C.3     1  UNL1        0.2543
     24 O          61.0528   80.7067   14.6278 O.3     1  UNL1       -0.4545
     25 C          61.4246   86.9287    9.9175 C.ar    1  UNL1        0.0705
     26 C          62.0018   86.2446    8.7138 C.ar    1  UNL1        0.1415
     27 F          63.4311   85.7895    8.7232 F       1  UNL1       -0.2043
     28 C          61.1498   86.0155    7.5008 C.ar    1  UNL1        0.0296
     29 C          59.7205   86.4705    7.4914 C.ar    1  UNL1        0.0046
     30 C          59.1433   87.1546    8.6950 C.ar    1  UNL1        0.0296
     31 C          59.9953   87.3837    9.9081 C.ar    1  UNL1        0.1415
     32 F          59.4181   88.0678   11.1118 F       1  UNL1       -0.2043
@<TRIPOS>BOND
     1    23    24    1
     2    24    15    1
     3    15    16   ar
     4    16    17   ar
     5    17     1    1
     6     1     2    1
     7     3     2    1
     8     3     4    1
     9     4     5    2
    10     4     6   am
    11     6     7    1
    12     6     8    1
    13     8     9    1
    14     8    10    2
    15    10    11    1
    16    11    25    1
    17    25    26   ar
    18    26    27    1
    19    26    28   ar
    20    28    29   ar
    21    29    30   ar
    22    30    31   ar
    23    31    32    1
    24    11    12    1
    25    17    18   ar
    26    18    19   ar
    27    19    20    1
    28    19    21   ar
    29    21    22    1
    30    21    15   ar
    31    12     1    1
    32    11     3    1
    33    31    25   ar
    34     9    13    1
    35     9    14    1
@<TRIPOS>MOLECULE
*****
 32 35 0 0 0
SMALL
GASTEIGER

@<TRIPOS>ATOM
      1 N          60.8533   93.1883   -0.4952 N.pl3   1  UNL1       -0.2736
      2 C          62.0073   93.4030   -1.4291 C.3     1  UNL1        0.1082
      3 C          61.4580   93.8676   -2.7453 C.3     1  UNL1        0.1550
      4 C          62.1249   94.2340   -4.0380 C.2     1  UNL1        0.2922
      5 O          63.6183   94.1616   -4.1585 O.2     1  UNL1       -0.2563
      6 N          61.2982   94.6729   -5.2103 N.am    1  UNL1       -0.1448
      7 C          61.9651   95.0393   -6.5030 C.3     1  UNL1        0.2159
      8 C          59.8049   94.7452   -5.0898 C.2     1  UNL1        0.3732
      9 N          58.9782   95.1841   -6.2621 N.pl3   1  UNL1       -0.2512
     10 N          59.1380   94.3788   -3.7972 N.2     1  UNL1       -0.1015
     11 C          59.9646   93.9400   -2.6249 C.3     1  UNL1        0.1994
     12 C          59.5908   93.5202   -1.2342 C.3     1  UNL1        0.1382
     13 H          59.4158   95.4246   -7.1106 H       1  UNL1        0.2412
     14 H          57.9980   95.2316   -6.1830 H       1  UNL1        0.2412
     15 C          59.8943   92.4948    3.2930 C.ar    1  UNL1        0.2569
     16 N          59.8022   92.9597    1.8698 N.ar    1  UNL1       -0.1768
     17 C          60.9455   92.7234    0.9280 C.ar    1  UNL1        0.2226
     18 N          62.1810   92.0222    1.4094 N.ar    1  UNL1       -0.2155
     19 C          62.2732   91.5573    2.8326 C.ar    1  UNL1        0.0942
     20 C          63.5087   90.8561    3.3139 C.3     1  UNL1        0.0548
     21 C          61.1298   91.7936    3.7743 C.ar    1  UNL1        0.2065
     22 F          61.2221   91.3287    5.1975 F       1  UNL1       -0.1980
     23 C          58.0036   91.5668    4.8141 C.3     1  UNL1        0.2543
     24 O          58.7509   92.7311    4.2347 O.3     1  UNL1       -0.4545
     25 C          58.4890   93.9634   -2.3564 C.ar    1  UNL1        0.0705
     26 C          57.6354   92.7964   -2.7557 C.ar    1  UNL1        0.1415
     27 F          58.2574   91.6059   -3.4236 F       1  UNL1       -0.2043
     28 C          56.1599   92.8197   -2.4871 C.ar    1  UNL1        0.0296
     29 C          55.5379   94.0102   -1.8193 C.ar    1  UNL1        0.0046
     30 C          56.3915   95.1772   -1.4199 C.ar    1  UNL1        0.0296
     31 C          57.8671   95.1538   -1.6885 C.ar    1  UNL1        0.1415
     32 F          58.7207   96.3208   -1.2892 F       1  UNL1       -0.2043
@<TRIPOS>BOND
     1    23    24    1
     2    24    15    1
     3    15    16   ar
     4    16    17   ar
     5    17     1    1
     6     1     2    1
     7     3     2    1
     8     3     4    1
     9     4     5    2
    10     4     6   am
    11     6     7    1
    12     6     8    1
    13     8     9    1
    14     8    10    2
    15    10    11    1
    16    11    25    1
    17    25    26   ar
    18    26    27    1
    19    26    28   ar
    20    28    29   ar
    21    29    30   ar
    22    30    31   ar
    23    31    32    1
    24    11    12    1
    25    17    18   ar
    26    18    19   ar
    27    19    20    1
    28    19    21   ar
    29    21    22    1
    30    21    15   ar
    31    12     1    1
    32    11     3    1
    33    31    25   ar
    34     9    13    1
    35     9    14    1
@<TRIPOS>MOLECULE
*****
 32 35 0 0 0
SMALL
GASTEIGER

@<TRIPOS>ATOM
      1 N          63.1476   89.7373   11.8721 N.pl3   1  UNL1       -0.2736
      2 C          63.8829   90.9546   11.3951 C.3     1  UNL1        0.1082
      3 C          64.6105   91.5451   12.5665 C.3     1  UNL1        0.1550
      4 C          65.4963   92.7488   12.6947 C.2     1  UNL1        0.2922
      5 O          65.7821   93.6012   11.4939 O.2     1  UNL1       -0.2563
      6 N          66.0964   93.1001   14.0238 N.am    1  UNL1       -0.1448
      7 C          66.9822   94.3039   14.1521 C.3     1  UNL1        0.2159
      8 C          65.8107   92.2479   15.2246 C.2     1  UNL1        0.3732
      9 N          66.4107   92.5992   16.5537 N.pl3   1  UNL1       -0.2512
     10 N          64.9249   91.0442   15.0963 N.2     1  UNL1       -0.1015
     11 C          64.3248   90.6928   13.7673 C.3     1  UNL1        0.1994
     12 C          63.4206   89.5755   13.3381 C.3     1  UNL1        0.1382
     13 H          66.9921   93.3893   16.6380 H       1  UNL1        0.2412
     14 H          66.2232   92.0398   17.3418 H       1  UNL1        0.2412
     15 C          61.4345   86.4609   10.4295 C.ar    1  UNL1        0.2569
     16 N          62.2923   87.3589   11.2709 N.ar    1  UNL1       -0.1768
     17 C          62.2897   88.8395   11.0307 C.ar    1  UNL1        0.2226
     18 N          61.4291   89.4223    9.9491 N.ar    1  UNL1       -0.2155
     19 C          60.5713   88.5243    9.1078 C.ar    1  UNL1        0.0942
     20 C          59.7107   89.1071    8.0262 C.3     1  UNL1        0.0548
     21 C          60.5739   87.0437    9.3480 C.ar    1  UNL1        0.2065
     22 F          59.7161   86.1458    8.5066 F       1  UNL1       -0.1980
     23 C          62.5810   84.3410   11.3998 C.3     1  UNL1        0.2543
     24 O          61.4372   84.9803   10.6698 O.3     1  UNL1       -0.4545
     25 C          63.9510   89.7513   14.8735 C.ar    1  UNL1        0.0705
     26 C          64.1775   88.2773   14.7125 C.ar    1  UNL1        0.1415
     27 F          64.7779   87.7447   13.4453 F       1  UNL1       -0.2043
     28 C          63.8037   87.3358   15.8188 C.ar    1  UNL1        0.0296
     29 C          63.2033   87.8683   17.0860 C.ar    1  UNL1        0.0046
     30 C          62.9767   89.3424   17.2470 C.ar    1  UNL1        0.0296
     31 C          63.3506   90.2839   16.1408 C.ar    1  UNL1        0.1415
     32 F          63.1240   91.7579   16.3018 F       1  UNL1       -0.2043
@<TRIPOS>BOND
     1    23    24    1
     2    24    15    1
     3    15    16   ar
     4    16    17   ar
     5    17     1    1
     6     1     2    1
     7     3     2    1
     8     3     4    1
     9     4     5    2
    10     4     6   am
    11     6     7    1
    12     6     8    1
    13     8     9    1
    14     8    10    2
    15    10    11    1
    16    11    25    1
    17    25    26   ar
    18    26    27    1
    19    26    28   ar
    20    28    29   ar
    21    29    30   ar
    22    30    31   ar
    23    31    32    1
    24    11    12    1
    25    17    18   ar
    26    18    19   ar
    27    19    20    1
    28    19    21   ar
    29    21    22    1
    30    21    15   ar
    31    12     1    1
    32    11     3    1
    33    31    25   ar
    34     9    13    1
    35     9    14    1
@<TRIPOS>MOLECULE
*****
 32 35 0 0 0
SMALL
GASTEIGER

@<TRIPOS>ATOM
      1 N          63.5953   87.0295   12.9550 N.pl3   1  UNL1       -0.2736
      2 C          63.7867   86.0965   14.1139 C.3     1  UNL1        0.1082
      3 C          63.4286   84.7128   13.6590 C.3     1  UNL1        0.1550
      4 C          63.4250   83.3920   14.3700 C.2     1  UNL1        0.2922
      5 O          63.8377   83.3142   15.8100 O.2     1  UNL1       -0.2563
      6 N          63.0087   82.1489   13.6409 N.am    1  UNL1       -0.1448
      7 C          63.0051   80.8281   14.3519 C.3     1  UNL1        0.2159
      8 C          62.5959   82.2267   12.2010 C.2     1  UNL1        0.3732
      9 N          62.1796   80.9836   11.4719 N.pl3   1  UNL1       -0.2512
     10 N          62.5995   83.5474   11.4900 N.2     1  UNL1       -0.1015
     11 C          63.0158   84.7905   12.2190 C.3     1  UNL1        0.1994
     12 C          63.1189   86.2223   11.7839 C.3     1  UNL1        0.1382
     13 H          62.1772   80.1167   11.9385 H       1  UNL1        0.2412
     14 H          61.9087   81.0346   10.5267 H       1  UNL1        0.2412
     15 C          64.6957   90.6407   14.1791 C.ar    1  UNL1        0.2569
     16 N          64.4532   89.1605   14.1686 N.ar    1  UNL1       -0.1768
     17 C          63.8377   88.5097   12.9654 C.ar    1  UNL1        0.2226
     18 N          63.4646   89.3392   11.7727 N.ar    1  UNL1       -0.2155
     19 C          63.7071   90.8195   11.7832 C.ar    1  UNL1        0.0942
     20 C          63.3339   91.6490   10.5904 C.3     1  UNL1        0.0548
     21 C          64.3226   91.4702   12.9863 C.ar    1  UNL1        0.2065
     22 F          64.5650   92.9505   12.9967 F       1  UNL1       -0.1980
     23 C          66.6341   91.9885   15.2636 C.3     1  UNL1        0.2543
     24 O          65.3112   91.2914   15.3823 O.3     1  UNL1       -0.4545
     25 C          62.6307   85.0225   10.7880 C.ar    1  UNL1        0.0705
     26 C          61.4242   85.8517   10.4610 C.ar    1  UNL1        0.1415
     27 F          60.6029   86.4489   11.5649 F       1  UNL1       -0.2043
     28 C          61.0391   86.0838    9.0300 C.ar    1  UNL1        0.0296
     29 C          61.8604   85.4866    7.9260 C.ar    1  UNL1        0.0046
     30 C          63.0669   84.6574    8.2530 C.ar    1  UNL1        0.0296
     31 C          63.4520   84.4254    9.6840 C.ar    1  UNL1        0.1415
     32 F          64.6585   83.5962   10.0110 F       1  UNL1       -0.2043
@<TRIPOS>BOND
     1    23    24    1
     2    24    15    1
     3    15    16   ar
     4    16    17   ar
     5    17     1    1
     6     1     2    1
     7     3     2    1
     8     3     4    1
     9     4     5    2
    10     4     6   am
    11     6     7    1
    12     6     8    1
    13     8     9    1
    14     8    10    2
    15    10    11    1
    16    11    25    1
    17    25    26   ar
    18    26    27    1
    19    26    28   ar
    20    28    29   ar
    21    29    30   ar
    22    30    31   ar
    23    31    32    1
    24    11    12    1
    25    17    18   ar
    26    18    19   ar
    27    19    20    1
    28    19    21   ar
    29    21    22    1
    30    21    15   ar
    31    12     1    1
    32    11     3    1
    33    31    25   ar
    34     9    13    1
    35     9    14    1
@<TRIPOS>MOLECULE
*****
 32 35 0 0 0
SMALL
GASTEIGER

@<TRIPOS>ATOM
      1 N          64.4218   89.6353   13.8291 N.pl3   1  UNL1       -0.2736
      2 C          63.8150   90.0701   12.5281 C.3     1  UNL1        0.1082
      3 C          64.4593   91.3635   12.1255 C.3     1  UNL1        0.1550
      4 C          64.2606   92.2563   10.9367 C.2     1  UNL1        0.2922
      5 O          63.2557   91.8918    9.8844 O.2     1  UNL1       -0.2563
      6 N          65.0670   93.5138   10.8001 N.am    1  UNL1       -0.1448
      7 C          64.8684   94.4067    9.6112 C.3     1  UNL1        0.2159
      8 C          66.0719   93.8784   11.8523 C.2     1  UNL1        0.3732
      9 N          66.8782   95.1359   11.7157 N.pl3   1  UNL1       -0.2512
     10 N          66.2705   92.9855   13.0411 N.2     1  UNL1       -0.1015
     11 C          65.4642   91.7281   13.1777 C.3     1  UNL1        0.1994
     12 C          65.4411   90.6600   14.2307 C.3     1  UNL1        0.1382
     13 H          66.7479   95.7219   10.9355 H       1  UNL1        0.2412
     14 H          67.5378   95.3751   12.4064 H       1  UNL1        0.2412
     15 C          63.8916   85.8051   14.7227 C.ar    1  UNL1        0.2569
     16 N          64.2424   87.0466   13.9575 N.ar    1  UNL1       -0.1768
     17 C          64.0710   88.3938   14.5944 C.ar    1  UNL1        0.2226
     18 N          63.5487   88.4995   15.9966 N.ar    1  UNL1       -0.2155
     19 C          63.1979   87.2579   16.7618 C.ar    1  UNL1        0.0942
     20 C          62.6757   87.3636   18.1639 C.3     1  UNL1        0.0548
     21 C          63.3693   85.9107   16.1249 C.ar    1  UNL1        0.2065
     22 F          63.0185   84.6693   16.8901 F       1  UNL1       -0.1980
     23 C          62.8583   83.6508   13.7022 C.3     1  UNL1        0.2543
     24 O          64.0630   84.4579   14.0857 O.3     1  UNL1       -0.4545
     25 C          66.4269   91.9609   14.3042 C.ar    1  UNL1        0.0705
     26 C          65.9162   92.3601   15.6569 C.ar    1  UNL1        0.1415
     27 F          64.4428   92.5265   15.8831 F       1  UNL1       -0.2043
     28 C          66.8790   92.5929   16.7833 C.ar    1  UNL1        0.0296
     29 C          68.3524   92.4265   16.5571 C.ar    1  UNL1        0.0046
     30 C          68.8631   92.0273   15.2043 C.ar    1  UNL1        0.0296
     31 C          67.9004   91.7944   14.0779 C.ar    1  UNL1        0.1415
     32 F          68.4111   91.3952   12.7252 F       1  UNL1       -0.2043
@<TRIPOS>BOND
     1    23    24    1
     2    24    15    1
     3    15    16   ar
     4    16    17   ar
     5    17     1    1
     6     1     2    1
     7     3     2    1
     8     3     4    1
     9     4     5    2
    10     4     6   am
    11     6     7    1
    12     6     8    1
    13     8     9    1
    14     8    10    2
    15    10    11    1
    16    11    25    1
    17    25    26   ar
    18    26    27    1
    19    26    28   ar
    20    28    29   ar
    21    29    30   ar
    22    30    31   ar
    23    31    32    1
    24    11    12    1
    25    17    18   ar
    26    18    19   ar
    27    19    20    1
    28    19    21   ar
    29    21    22    1
    30    21    15   ar
    31    12     1    1
    32    11     3    1
    33    31    25   ar
    34     9    13    1
    35     9    14    1
@<TRIPOS>MOLECULE
*****
 32 35 0 0 0
SMALL
GASTEIGER

@<TRIPOS>ATOM
      1 N          63.5106   86.6653   13.2220 N.pl3   1  UNL1       -0.2736
      2 C          63.7599   85.6063   14.2546 C.3     1  UNL1        0.1082
      3 C          63.5067   84.2711   13.6196 C.3     1  UNL1        0.1550
      4 C          63.5933   82.8726   14.1549 C.2     1  UNL1        0.2922
      5 O          63.9990   82.6386   15.5800 O.2     1  UNL1       -0.2563
      6 N          63.2741   81.7079   13.2651 N.am    1  UNL1       -0.1448
      7 C          63.3606   80.3092   13.8004 C.3     1  UNL1        0.2159
      8 C          62.8684   81.9418   11.8402 C.2     1  UNL1        0.3732
      9 N          62.5492   80.7771   10.9504 N.pl3   1  UNL1       -0.2512
     10 N          62.7818   83.3403   11.3049 N.2     1  UNL1       -0.1015
     11 C          63.1010   84.5050   12.1946 C.3     1  UNL1        0.1994
     12 C          63.1034   85.9847   11.9489 C.3     1  UNL1        0.1382
     13 H          62.6060   79.8591   11.3016 H       1  UNL1        0.2412
     14 H          62.2829   80.9306   10.0151 H       1  UNL1        0.2412
     15 C          63.8412   90.5435   12.4468 C.ar    1  UNL1        0.2569
     16 N          63.7069   89.0636   12.2423 N.ar    1  UNL1       -0.1768
     17 C          63.6449   88.1452   13.4267 C.ar    1  UNL1        0.2226
     18 N          63.7171   88.7068   14.8157 N.ar    1  UNL1       -0.2155
     19 C          63.8514   90.1868   15.0202 C.ar    1  UNL1        0.0942
     20 C          63.9237   90.7483   16.4092 C.3     1  UNL1        0.0548
     21 C          63.9135   91.1051   13.8358 C.ar    1  UNL1        0.2065
     22 F          64.0478   92.5850   14.0404 F       1  UNL1       -0.1980
     23 C          63.0160   91.2187   10.0776 C.3     1  UNL1        0.2543
     24 O          63.9033   91.4617   11.2624 O.3     1  UNL1       -0.4545
     25 C          62.7115   84.8923   10.7988 C.ar    1  UNL1        0.0705
     26 C          63.5250   84.4135    9.6330 C.ar    1  UNL1        0.1415
     27 F          64.7279   83.5474    9.8630 F       1  UNL1       -0.2043
     28 C          63.1355   84.8008    8.2372 C.ar    1  UNL1        0.0296
     29 C          61.9326   85.6668    8.0072 C.ar    1  UNL1        0.0046
     30 C          61.1192   86.1456    9.1730 C.ar    1  UNL1        0.0296
     31 C          61.5086   85.7584   10.5688 C.ar    1  UNL1        0.1415
     32 F          60.6952   86.2372   11.7346 F       1  UNL1       -0.2043
@<TRIPOS>BOND
     1    23    24    1
     2    24    15    1
     3    15    16   ar
     4    16    17   ar
     5    17     1    1
     6     1     2    1
     7     3     2    1
     8     3     4    1
     9     4     5    2
    10     4     6   am
    11     6     7    1
    12     6     8    1
    13     8     9    1
    14     8    10    2
    15    10    11    1
    16    11    25    1
    17    25    26   ar
    18    26    27    1
    19    26    28   ar
    20    28    29   ar
    21    29    30   ar
    22    30    31   ar
    23    31    32    1
    24    11    12    1
    25    17    18   ar
    26    18    19   ar
    27    19    20    1
    28    19    21   ar
    29    21    22    1
    30    21    15   ar
    31    12     1    1
    32    11     3    1
    33    31    25   ar
    34     9    13    1
    35     9    14    1
@<TRIPOS>MOLECULE
*****
 32 35 0 0 0
SMALL
GASTEIGER

@<TRIPOS>ATOM
      1 N          63.1197   89.8421   11.8344 N.pl3   1  UNL1       -0.2736
      2 C          63.8700   91.0572   11.3754 C.3     1  UNL1        0.1082
      3 C          64.6166   91.6127   12.5518 C.3     1  UNL1        0.1550
      4 C          65.5222   92.7996   12.6963 C.2     1  UNL1        0.2922
      5 O          65.8112   93.6715   11.5103 O.2     1  UNL1       -0.2563
      6 N          66.1390   93.1149   14.0269 N.am    1  UNL1       -0.1448
      7 C          67.0446   94.3019   14.1714 C.3     1  UNL1        0.2159
      8 C          65.8501   92.2432   15.2128 C.2     1  UNL1        0.3732
      9 N          66.4668   92.5584   16.5434 N.pl3   1  UNL1       -0.2512
     10 N          64.9445   91.0562   15.0683 N.2     1  UNL1       -0.1015
     11 C          64.3277   90.7409   13.7378 C.3     1  UNL1        0.1994
     12 C          63.4026   89.6467   13.2944 C.3     1  UNL1        0.1382
     13 H          67.0612   93.3375   16.6383 H       1  UNL1        0.2412
     14 H          66.2772   91.9862   17.3218 H       1  UNL1        0.2412
     15 C          60.3558   88.7332    9.2111 C.ar    1  UNL1        0.2569
     16 N          61.2348   89.6005   10.0627 N.ar    1  UNL1       -0.1768
     17 C          62.2407   88.9748   10.9828 C.ar    1  UNL1        0.2226
     18 N          62.3677   87.4818   11.0513 N.ar    1  UNL1       -0.2155
     19 C          61.4887   86.6145   10.1996 C.ar    1  UNL1        0.0942
     20 C          61.6158   85.1214   10.2681 C.3     1  UNL1        0.0548
     21 C          60.4828   87.2402    9.2796 C.ar    1  UNL1        0.2065
     22 F          59.6038   86.3728    8.4280 F       1  UNL1       -0.1980
     23 C          59.5320   89.2651    6.8051 C.3     1  UNL1        0.2543
     24 O          59.3498   89.3590    8.2910 O.3     1  UNL1       -0.4545
     25 C          63.9486   89.7833   14.8283 C.ar    1  UNL1        0.0705
     26 C          63.3531   90.2983   16.1052 C.ar    1  UNL1        0.1415
     27 F          63.1368   91.7708   16.2915 F       1  UNL1       -0.2043
     28 C          62.9739   89.3406   17.1956 C.ar    1  UNL1        0.0296
     29 C          63.1902   87.8681   17.0093 C.ar    1  UNL1        0.0046
     30 C          63.7856   87.3531   15.7324 C.ar    1  UNL1        0.0296
     31 C          64.1648   88.3107   14.6419 C.ar    1  UNL1        0.1415
     32 F          64.7603   87.7958   13.3651 F       1  UNL1       -0.2043
@<TRIPOS>BOND
     1    23    24    1
     2    24    15    1
     3    15    16   ar
     4    16    17   ar
     5    17     1    1
     6     1     2    1
     7     3     2    1
     8     3     4    1
     9     4     5    2
    10     4     6   am
    11     6     7    1
    12     6     8    1
    13     8     9    1
    14     8    10    2
    15    10    11    1
    16    11    25    1
    17    25    26   ar
    18    26    27    1
    19    26    28   ar
    20    28    29   ar
    21    29    30   ar
    22    30    31   ar
    23    31    32    1
    24    11    12    1
    25    17    18   ar
    26    18    19   ar
    27    19    20    1
    28    19    21   ar
    29    21    22    1
    30    21    15   ar
    31    12     1    1
    32    11     3    1
    33    31    25   ar
    34     9    13    1
    35     9    14    1
@<TRIPOS>MOLECULE
*****
 32 35 0 0 0
SMALL
GASTEIGER

@<TRIPOS>ATOM
      1 N          63.1127   89.8252   11.8452 N.pl3   1  UNL1       -0.2736
      2 C          63.8582   91.0422   11.3838 C.3     1  UNL1        0.1082
      3 C          64.6041   91.6020   12.5587 C.3     1  UNL1        0.1550
      4 C          65.5057   92.7924   12.7005 C.2     1  UNL1        0.2922
      5 O          65.7902   93.6636   11.5130 O.2     1  UNL1       -0.2563
      6 N          66.1227   93.1116   14.0300 N.am    1  UNL1       -0.1448
      7 C          67.0243   94.3021   14.1719 C.3     1  UNL1        0.2159
      8 C          65.8382   92.2406   15.2174 C.2     1  UNL1        0.3732
      9 N          66.4552   92.5598   16.5469 N.pl3   1  UNL1       -0.2512
     10 N          64.9366   91.0502   15.0756 N.2     1  UNL1       -0.1015
     11 C          64.3196   90.7309   13.7462 C.3     1  UNL1        0.1994
     12 C          63.3978   89.6327   13.3053 C.3     1  UNL1        0.1382
     13 H          67.0470   93.3411   16.6401 H       1  UNL1        0.2412
     14 H          66.2685   91.9881   17.3263 H       1  UNL1        0.2412
     15 C          60.3515   88.7028    9.2248 C.ar    1  UNL1        0.2569
     16 N          61.2283   89.5744   10.0743 N.ar    1  UNL1       -0.1768
     17 C          62.2359   88.9535   10.9958 C.ar    1  UNL1        0.2226
     18 N          62.3668   87.4610   11.0679 N.ar    1  UNL1       -0.2155
     19 C          61.4899   86.5894   10.2184 C.ar    1  UNL1        0.0942
     20 C          61.6208   85.0969   10.2905 C.3     1  UNL1        0.0548
     21 C          60.4823   87.2103    9.2969 C.ar    1  UNL1        0.2065
     22 F          59.6056   86.3387    8.4474 F       1  UNL1       -0.1980
     23 C          59.5505   89.2677    6.8187 C.3     1  UNL1        0.2543
     24 O          59.3439   89.3238    8.3034 O.3     1  UNL1       -0.4545
     25 C          63.9450   89.7734   14.8384 C.ar    1  UNL1        0.0705
     26 C          64.1598   88.3007   14.6511 C.ar    1  UNL1        0.1415
     27 F          64.7491   87.7855   13.3716 F       1  UNL1       -0.2043
     28 C          63.7852   87.3433   15.7433 C.ar    1  UNL1        0.0296
     29 C          63.1958   87.8585   17.0228 C.ar    1  UNL1        0.0046
     30 C          62.9810   89.3312   17.2101 C.ar    1  UNL1        0.0296
     31 C          63.3556   90.2887   16.1179 C.ar    1  UNL1        0.1415
     32 F          63.1409   91.7614   16.3052 F       1  UNL1       -0.2043
@<TRIPOS>BOND
     1    23    24    1
     2    24    15    1
     3    15    16   ar
     4    16    17   ar
     5    17     1    1
     6     1     2    1
     7     3     2    1
     8     3     4    1
     9     4     5    2
    10     4     6   am
    11     6     7    1
    12     6     8    1
    13     8     9    1
    14     8    10    2
    15    10    11    1
    16    11    25    1
    17    25    26   ar
    18    26    27    1
    19    26    28   ar
    20    28    29   ar
    21    29    30   ar
    22    30    31   ar
    23    31    32    1
    24    11    12    1
    25    17    18   ar
    26    18    19   ar
    27    19    20    1
    28    19    21   ar
    29    21    22    1
    30    21    15   ar
    31    12     1    1
    32    11     3    1
    33    31    25   ar
    34     9    13    1
    35     9    14    1
