@<TRIPOS>MOLECULE
*****
 42 46 0 0 0
SMALL
GASTEIGER

@<TRIPOS>ATOM
      1 C          62.4480   85.9585   11.5681 C.ar    1  UNL1        0.0383
      2 C          63.1610   86.7018   12.6587 C.ar    1  UNL1        0.0433
      3 N          62.9620   88.1701   12.4254 N.ar    1  UNL1       -0.3260
      4 C          62.1262   88.3343   11.1907 C.ar    1  UNL1        0.0606
      5 C          61.6134   89.5519   10.4805 C.ar    1  UNL1        0.0203
      6 C          60.7829   89.4026    9.2404 C.ar    1  UNL1        0.0384
      7 C          60.4652   88.0357    8.7105 C.ar    1  UNL1        0.1392
      8 C          60.9780   86.8181    9.4208 C.ar    1  UNL1        0.0389
      9 C          61.8086   86.9674   10.6609 C.ar    1  UNL1        0.0256
     10 S          62.3856   84.4679   11.4121 S.3     1  UNL1       -0.1142
     11 C          63.6906   83.0168   12.2435 C.3     1  UNL1        0.0112
     12 C          63.5854   83.7144   10.9197 C.3     1  UNL1        0.0434
     13 C          63.4802   84.4120    9.5959 C.3     1  UNL1        0.0112
     14 C          64.7852   82.9608   10.4272 C.3     1  UNL1        0.0112
     15 C          63.9366   86.0850   13.7847 C.3     1  UNL1        0.0495
     16 C          63.4798   86.2725   15.2011 C.3     1  UNL1        0.0376
     17 C          64.2884   87.5323   15.2952 C.3     1  UNL1        0.0059
     18 C          62.6711   85.0127   15.1070 C.3     1  UNL1        0.0059
     19 C          63.0229   86.4600   16.6175 C.2     1  UNL1        0.0500
     20 O          62.4289   85.3081   17.3727 O.co2   1  UNL1       -0.5492
     21 O          63.1602   87.7994   17.2787 O.co2   1  UNL1       -0.5492
     22 C          63.5038   89.2795   13.2773 C.3     1  UNL1        0.1324
     23 C          64.1678   90.4619   12.6359 C.ar    1  UNL1        0.0004
     24 C          65.2090   91.2367   13.3879 C.ar    1  UNL1       -0.0024
     25 C          65.8729   92.4190   12.7466 C.ar    1  UNL1       -0.0002
     26 C          65.4956   92.8265   11.3532 C.ar    1  UNL1        0.0015
     27 C          64.4544   92.0516   10.6011 C.ar    1  UNL1       -0.0002
     28 C          63.7905   90.8694   11.2424 C.ar    1  UNL1       -0.0024
     29 C          66.1595   94.0088   10.7118 C.ar    1  UNL1        0.0192
     30 C          66.9537   93.8308    9.4518 C.ar    1  UNL1        0.0031
     31 C          67.6177   95.0131    8.8103 C.ar    1  UNL1        0.0207
     32 C          67.4873   96.3734    9.4289 C.ar    1  UNL1        0.0989
     33 N          66.6931   96.5514   10.6888 N.ar    1  UNL1       -0.2423
     34 C          66.0292   95.3691   11.3303 C.ar    1  UNL1        0.0988
     35 O          59.6346   87.8864    7.4703 O.3     1  UNL1       -0.4690
     36 C          58.5419   88.8710    7.1765 C.3     1  UNL1        0.2508
     37 C          58.7708   89.9711    6.1828 C.ar    1  UNL1        0.1026
     38 C          60.1624   90.2863    5.7202 C.ar    1  UNL1        0.0185
     39 C          60.3913   91.3864    4.7265 C.ar    1  UNL1        0.0029
     40 C          59.2286   92.1713    4.1955 C.ar    1  UNL1        0.0207
     41 C          57.8370   91.8562    4.6581 C.ar    1  UNL1        0.0986
     42 N          57.6081   90.7561    5.6518 N.ar    1  UNL1       -0.2445
@<TRIPOS>UNITY_ATOM_ATTR
20 1
charge -1
@<TRIPOS>BOND
     1    11    12    1
     2    12    13    1
     3    12    14    1
     4    12    10    1
     5    10     1    1
     6     1     2   ar
     7     2    15    1
     8    15    16    1
     9    16    17    1
    10    16    18    1
    11    16    19    1
    12    19    20   ar
    13    19    21   ar
    14     2     3   ar
    15     3    22    1
    16    22    23    1
    17    23    24   ar
    18    24    25   ar
    19    25    26   ar
    20    26    29    1
    21    29    30   ar
    22    30    31   ar
    23    31    32   ar
    24    32    33   ar
    25    33    34   ar
    26    26    27   ar
    27    27    28   ar
    28     3     4   ar
    29     4     5   ar
    30     5     6   ar
    31     6     7   ar
    32     7    35    1
    33    35    36    1
    34    36    37    1
    35    37    38   ar
    36    38    39   ar
    37    39    40   ar
    38    40    41   ar
    39    41    42   ar
    40     7     8   ar
    41     8     9   ar
    42     9     1   ar
    43    28    23   ar
    44     9     4   ar
    45    34    29   ar
    46    42    37   ar
@<TRIPOS>MOLECULE
*****
 42 46 0 0 0
SMALL
GASTEIGER

@<TRIPOS>ATOM
      1 C          62.3769   86.9368   11.7408 C.ar    1  UNL1        0.0383
      2 C          62.5632   88.3960   12.0344 C.ar    1  UNL1        0.0433
      3 N          63.4779   88.5177   13.2170 N.ar    1  UNL1       -0.3260
      4 C          63.8570   87.1338   13.6542 C.ar    1  UNL1        0.0606
      5 C          64.7339   86.6371   14.7652 C.ar    1  UNL1        0.0203
      6 C          64.9302   85.1633   14.9638 C.ar    1  UNL1        0.0384
      7 C          64.2497   84.1863   14.0515 C.ar    1  UNL1        0.1392
      8 C          63.3728   84.6830   12.9405 C.ar    1  UNL1        0.0389
      9 C          63.1765   86.1567   12.7419 C.ar    1  UNL1        0.0256
     10 S          61.5382   86.3592   10.6395 S.3     1  UNL1       -0.1142
     11 C          61.4515   87.0571    8.6382 C.3     1  UNL1        0.0112
     12 C          62.1772   85.9511    9.3453 C.3     1  UNL1        0.0434
     13 C          62.9031   84.8451   10.0524 C.3     1  UNL1        0.0112
     14 C          62.8163   85.5430    8.0511 C.3     1  UNL1        0.0112
     15 C          61.9435   89.5336   11.2783 C.3     1  UNL1        0.0495
     16 C          60.5122   89.9077   11.5261 C.3     1  UNL1        0.0376
     17 C          60.7277   89.7537   13.0025 C.3     1  UNL1        0.0059
     18 C          60.2968   90.0616   10.0497 C.3     1  UNL1        0.0059
     19 C          59.0809   90.2817   11.7740 C.2     1  UNL1        0.0500
     20 O          58.5971   91.6611   11.4377 O.co2   1  UNL1       -0.5492
     21 O          58.1333   89.2763   12.3582 O.co2   1  UNL1       -0.5492
     22 C          63.9337   89.7984   13.8510 C.3     1  UNL1        0.1324
     23 C          64.5335   90.8822   13.0049 C.ar    1  UNL1        0.0004
     24 C          63.9448   91.1977   11.6618 C.ar    1  UNL1       -0.0024
     25 C          64.5446   92.2814   10.8158 C.ar    1  UNL1       -0.0002
     26 C          65.7331   93.0497   11.3129 C.ar    1  UNL1        0.0015
     27 C          66.3218   92.7342   12.6560 C.ar    1  UNL1       -0.0002
     28 C          65.7221   91.6505   13.5020 C.ar    1  UNL1       -0.0024
     29 C          66.3329   94.1334   10.4669 C.ar    1  UNL1        0.0192
     30 C          67.1950   93.7773    9.2922 C.ar    1  UNL1        0.0031
     31 C          67.7949   94.8610    8.4461 C.ar    1  UNL1        0.0207
     32 C          67.5327   96.3009    8.7749 C.ar    1  UNL1        0.0989
     33 N          66.6706   96.6570    9.9496 N.ar    1  UNL1       -0.2423
     34 C          66.0708   95.5733   10.7956 C.ar    1  UNL1        0.0988
     35 O          64.4461   82.7125   14.2502 O.3     1  UNL1       -0.4690
     36 C          63.3066   81.7657   14.0158 C.3     1  UNL1        0.2508
     37 C          63.1663   81.0742   12.6920 C.ar    1  UNL1        0.1026
     38 C          63.5098   81.8013   11.4259 C.ar    1  UNL1        0.0185
     39 C          63.3694   81.1098   10.1022 C.ar    1  UNL1        0.0029
     40 C          62.8855   79.6911   10.0448 C.ar    1  UNL1        0.0207
     41 C          62.5420   78.9640   11.3109 C.ar    1  UNL1        0.0986
     42 N          62.6824   79.6555   12.6346 N.ar    1  UNL1       -0.2445
@<TRIPOS>UNITY_ATOM_ATTR
20 1
charge -1
@<TRIPOS>BOND
     1    11    12    1
     2    12    13    1
     3    12    14    1
     4    12    10    1
     5    10     1    1
     6     1     2   ar
     7     2    15    1
     8    15    16    1
     9    16    17    1
    10    16    18    1
    11    16    19    1
    12    19    20   ar
    13    19    21   ar
    14     2     3   ar
    15     3    22    1
    16    22    23    1
    17    23    24   ar
    18    24    25   ar
    19    25    26   ar
    20    26    29    1
    21    29    30   ar
    22    30    31   ar
    23    31    32   ar
    24    32    33   ar
    25    33    34   ar
    26    26    27   ar
    27    27    28   ar
    28     3     4   ar
    29     4     5   ar
    30     5     6   ar
    31     6     7   ar
    32     7    35    1
    33    35    36    1
    34    36    37    1
    35    37    38   ar
    36    38    39   ar
    37    39    40   ar
    38    40    41   ar
    39    41    42   ar
    40     7     8   ar
    41     8     9   ar
    42     9     1   ar
    43    28    23   ar
    44     9     4   ar
    45    34    29   ar
    46    42    37   ar
@<TRIPOS>MOLECULE
*****
 42 46 0 0 0
SMALL
GASTEIGER

@<TRIPOS>ATOM
      1 C          63.6055   86.6488   13.6055 C.ar    1  UNL1        0.0383
      2 C          62.8108   85.7329   12.7226 C.ar    1  UNL1        0.0433
      3 N          62.2756   86.5414   11.5782 N.ar    1  UNL1       -0.3260
      4 C          62.7395   87.9570   11.7538 C.ar    1  UNL1        0.0606
      5 C          62.5197   89.1942   10.9346 C.ar    1  UNL1        0.0203
      6 C          63.1219   90.4977   11.3684 C.ar    1  UNL1        0.0384
      7 C          63.9439   90.5640   12.6214 C.ar    1  UNL1        0.1392
      8 C          64.1637   89.3269   13.4405 C.ar    1  UNL1        0.0389
      9 C          63.5615   88.0234   13.0067 C.ar    1  UNL1        0.0256
     10 S          64.3191   86.2586   14.8659 S.3     1  UNL1       -0.1142
     11 C          63.5731   84.6246   15.9944 C.3     1  UNL1        0.0112
     12 C          63.5536   86.1166   16.1479 C.3     1  UNL1        0.0434
     13 C          63.5340   87.6086   16.3016 C.3     1  UNL1        0.0112
     14 C          62.7880   85.9746   17.4300 C.3     1  UNL1        0.0112
     15 C          62.5900   84.2660   12.9452 C.3     1  UNL1        0.0495
     16 C          63.1470   83.2679   11.9738 C.3     1  UNL1        0.0376
     17 C          62.0546   82.3059   12.3358 C.3     1  UNL1        0.0059
     18 C          64.2395   84.2299   11.6118 C.3     1  UNL1        0.0059
     19 C          63.7040   82.2697   11.0025 C.2     1  UNL1        0.0500
     20 O          63.0880   80.9065   10.8919 O.co2   1  UNL1       -0.5492
     21 O          64.8770   82.6347   10.1418 O.co2   1  UNL1       -0.5492
     22 C          61.4256   86.0251   10.4553 C.3     1  UNL1        0.1324
     23 C          60.8453   86.9793    9.4538 C.ar    1  UNL1        0.0004
     24 C          60.4075   88.3469    9.8872 C.ar    1  UNL1       -0.0024
     25 C          59.8273   89.3011    8.8858 C.ar    1  UNL1       -0.0002
     26 C          59.6849   88.8877    7.4510 C.ar    1  UNL1        0.0015
     27 C          60.1228   87.5200    7.0176 C.ar    1  UNL1       -0.0002
     28 C          60.7030   86.5658    8.0190 C.ar    1  UNL1       -0.0024
     29 C          59.1047   89.8418    6.4496 C.ar    1  UNL1        0.0192
     30 C          60.0122   90.6878    5.6065 C.ar    1  UNL1        0.0031
     31 C          59.4320   91.6421    4.6050 C.ar    1  UNL1        0.0207
     32 C          57.9444   91.7502    4.4466 C.ar    1  UNL1        0.0989
     33 N          57.0369   90.9042    5.2896 N.ar    1  UNL1       -0.2423
     34 C          57.6170   89.9500    6.2911 C.ar    1  UNL1        0.0988
     35 O          64.5461   91.8676   13.0551 O.3     1  UNL1       -0.4690
     36 C          66.0124   92.1175   12.8622 C.3     1  UNL1        0.2508
     37 C          66.4822   92.9993   11.7434 C.ar    1  UNL1        0.1026
     38 C          67.2505   92.4113   10.5971 C.ar    1  UNL1        0.0185
     39 C          67.7203   93.2931    9.4783 C.ar    1  UNL1        0.0029
     40 C          67.4218   94.7628    9.5058 C.ar    1  UNL1        0.0207
     41 C          66.6535   95.3508   10.6521 C.ar    1  UNL1        0.0986
     42 N          66.1837   94.4690   11.7709 N.ar    1  UNL1       -0.2445
@<TRIPOS>UNITY_ATOM_ATTR
20 1
charge -1
@<TRIPOS>BOND
     1    11    12    1
     2    12    13    1
     3    12    14    1
     4    12    10    1
     5    10     1    1
     6     1     2   ar
     7     2    15    1
     8    15    16    1
     9    16    17    1
    10    16    18    1
    11    16    19    1
    12    19    20   ar
    13    19    21   ar
    14     2     3   ar
    15     3    22    1
    16    22    23    1
    17    23    24   ar
    18    24    25   ar
    19    25    26   ar
    20    26    29    1
    21    29    30   ar
    22    30    31   ar
    23    31    32   ar
    24    32    33   ar
    25    33    34   ar
    26    26    27   ar
    27    27    28   ar
    28     3     4   ar
    29     4     5   ar
    30     5     6   ar
    31     6     7   ar
    32     7    35    1
    33    35    36    1
    34    36    37    1
    35    37    38   ar
    36    38    39   ar
    37    39    40   ar
    38    40    41   ar
    39    41    42   ar
    40     7     8   ar
    41     8     9   ar
    42     9     1   ar
    43    28    23   ar
    44     9     4   ar
    45    34    29   ar
    46    42    37   ar
@<TRIPOS>MOLECULE
*****
 42 46 0 0 0
SMALL
GASTEIGER

@<TRIPOS>ATOM
      1 C          63.5694   86.6377   13.5711 C.ar    1  UNL1        0.0383
      2 C          62.7931   85.7148   12.6791 C.ar    1  UNL1        0.0433
      3 N          62.2407   86.5240   11.5433 N.ar    1  UNL1       -0.3260
      4 C          62.6756   87.9470   11.7334 C.ar    1  UNL1        0.0606
      5 C          62.4300   89.1878   10.9272 C.ar    1  UNL1        0.0203
      6 C          63.0055   90.4988   11.3743 C.ar    1  UNL1        0.0384
      7 C          63.8267   90.5690   12.6275 C.ar    1  UNL1        0.1392
      8 C          64.0723   89.3282   13.4338 C.ar    1  UNL1        0.0389
      9 C          63.4968   88.0172   12.9867 C.ar    1  UNL1        0.0256
     10 S          64.2915   86.2492   14.8272 S.3     1  UNL1       -0.1142
     11 C          63.5237   87.6097   16.2623 C.3     1  UNL1        0.0112
     12 C          63.5361   86.1169   16.1163 C.3     1  UNL1        0.0434
     13 C          63.5486   84.6240   15.9703 C.3     1  UNL1        0.0112
     14 C          62.7808   85.9844   17.4054 C.3     1  UNL1        0.0112
     15 C          62.6026   84.2415   12.8865 C.3     1  UNL1        0.0495
     16 C          63.1599   83.2660   11.8926 C.3     1  UNL1        0.0376
     17 C          64.2540   84.2350   11.5550 C.3     1  UNL1        0.0059
     18 C          62.0659   82.2970   12.2302 C.3     1  UNL1        0.0059
     19 C          63.7173   82.2905   10.8987 C.2     1  UNL1        0.0500
     20 O          63.0734   80.9470   10.7243 O.co2   1  UNL1       -0.5492
     21 O          64.9186   82.6585   10.0793 O.co2   1  UNL1       -0.5492
     22 C          61.4008   86.0020   10.4154 C.3     1  UNL1        0.1324
     23 C          60.8066   86.9538    9.4198 C.ar    1  UNL1        0.0004
     24 C          60.4249   88.3411    9.8439 C.ar    1  UNL1       -0.0024
     25 C          59.8307   89.2929    8.8485 C.ar    1  UNL1       -0.0002
     26 C          59.6183   88.8574    7.4289 C.ar    1  UNL1        0.0015
     27 C          60.0001   87.4702    7.0048 C.ar    1  UNL1       -0.0002
     28 C          60.5943   86.5184    8.0002 C.ar    1  UNL1       -0.0024
     29 C          59.0242   89.8092    6.4333 C.ar    1  UNL1        0.0192
     30 C          59.9195   90.6652    5.5874 C.ar    1  UNL1        0.0031
     31 C          59.3254   91.6171    4.5918 C.ar    1  UNL1        0.0207
     32 C          57.8360   91.7128    4.4422 C.ar    1  UNL1        0.0989
     33 N          56.9407   90.8567    5.2881 N.ar    1  UNL1       -0.2423
     34 C          57.5347   89.9049    6.2836 C.ar    1  UNL1        0.0988
     35 O          64.4022   91.8801   13.0746 O.3     1  UNL1       -0.4690
     36 C          65.8296   92.2185   12.7614 C.3     1  UNL1        0.2508
     37 C          66.8239   92.3782   13.8731 C.ar    1  UNL1        0.1026
     38 C          66.3484   92.5920   15.2796 C.ar    1  UNL1        0.0185
     39 C          67.3428   92.7517   16.3912 C.ar    1  UNL1        0.0029
     40 C          68.8125   92.6977   16.0964 C.ar    1  UNL1        0.0207
     41 C          69.2879   92.4839   14.6899 C.ar    1  UNL1        0.0986
     42 N          68.2936   92.3241   13.5783 N.ar    1  UNL1       -0.2445
@<TRIPOS>UNITY_ATOM_ATTR
20 1
charge -1
@<TRIPOS>BOND
     1    11    12    1
     2    12    13    1
     3    12    14    1
     4    12    10    1
     5    10     1    1
     6     1     2   ar
     7     2    15    1
     8    15    16    1
     9    16    17    1
    10    16    18    1
    11    16    19    1
    12    19    20   ar
    13    19    21   ar
    14     2     3   ar
    15     3    22    1
    16    22    23    1
    17    23    24   ar
    18    24    25   ar
    19    25    26   ar
    20    26    29    1
    21    29    30   ar
    22    30    31   ar
    23    31    32   ar
    24    32    33   ar
    25    33    34   ar
    26    26    27   ar
    27    27    28   ar
    28     3     4   ar
    29     4     5   ar
    30     5     6   ar
    31     6     7   ar
    32     7    35    1
    33    35    36    1
    34    36    37    1
    35    37    38   ar
    36    38    39   ar
    37    39    40   ar
    38    40    41   ar
    39    41    42   ar
    40     7     8   ar
    41     8     9   ar
    42     9     1   ar
    43    28    23   ar
    44     9     4   ar
    45    34    29   ar
    46    42    37   ar
@<TRIPOS>MOLECULE
*****
 42 46 0 0 0
SMALL
GASTEIGER

@<TRIPOS>ATOM
      1 C          62.6108   88.7359   11.5791 C.ar    1  UNL1        0.0383
      2 C          62.6071   87.3167   12.0649 C.ar    1  UNL1        0.0433
      3 N          63.5024   87.2356   13.2656 N.ar    1  UNL1       -0.3260
      4 C          64.0595   88.6045   13.5219 C.ar    1  UNL1        0.0606
      5 C          64.9973   89.1265   14.5697 C.ar    1  UNL1        0.0203
      6 C          65.3841   90.5757   14.5752 C.ar    1  UNL1        0.0384
      7 C          64.8330   91.5030   13.5328 C.ar    1  UNL1        0.1392
      8 C          63.8952   90.9810   12.4850 C.ar    1  UNL1        0.0389
      9 C          63.5084   89.5318   12.4795 C.ar    1  UNL1        0.0256
     10 S          61.8504   89.2661   10.3998 S.3     1  UNL1       -0.1142
     11 C          60.3927   90.1269    9.1215 C.3     1  UNL1        0.0112
     12 C          60.5408   89.9678   10.6056 C.3     1  UNL1        0.0434
     13 C          60.6889   89.8087   12.0899 C.3     1  UNL1        0.0112
     14 C          59.2312   90.6695   10.8116 C.3     1  UNL1        0.0112
     15 C          61.8423   86.1786   11.4568 C.3     1  UNL1        0.0495
     16 C          61.7052   86.0786    9.9664 C.3     1  UNL1        0.0376
     17 C          60.3126   86.6283   10.0576 C.3     1  UNL1        0.0059
     18 C          63.0979   85.5289    9.8753 C.3     1  UNL1        0.0059
     19 C          61.5681   85.9786    8.4760 C.2     1  UNL1        0.0500
     20 O          62.5753   85.2020    7.6807 O.co2   1  UNL1       -0.5492
     21 O          60.4239   86.6551    7.7810 O.co2   1  UNL1       -0.5492
     22 C          63.7901   86.0020   14.0691 C.3     1  UNL1        0.1324
     23 C          63.5929   84.6462   13.4584 C.ar    1  UNL1        0.0004
     24 C          62.3858   83.8308   13.8162 C.ar    1  UNL1       -0.0024
     25 C          62.1886   82.4750   13.2055 C.ar    1  UNL1       -0.0002
     26 C          63.1985   81.9347   12.2370 C.ar    1  UNL1        0.0015
     27 C          64.4056   82.7501   11.8791 C.ar    1  UNL1       -0.0002
     28 C          64.6028   84.1058   12.4898 C.ar    1  UNL1       -0.0024
     29 C          63.0013   80.5789   11.6262 C.ar    1  UNL1        0.0192
     30 C          63.1340   80.3979   10.1431 C.ar    1  UNL1        0.0031
     31 C          62.9369   79.0421    9.5323 C.ar    1  UNL1        0.0207
     32 C          62.6070   77.8673   10.4046 C.ar    1  UNL1        0.0989
     33 N          62.4743   78.0483   11.8878 N.ar    1  UNL1       -0.2423
     34 C          62.6714   79.4040   12.4986 C.ar    1  UNL1        0.0988
     35 O          65.2198   92.9523   13.5383 O.3     1  UNL1       -0.4690
     36 C          66.6265   93.3544   13.2071 C.3     1  UNL1        0.2508
     37 C          67.0730   93.4118   11.7762 C.ar    1  UNL1        0.1026
     38 C          67.6426   92.1899   11.1187 C.ar    1  UNL1        0.0185
     39 C          68.0891   92.2474    9.6879 C.ar    1  UNL1        0.0029
     40 C          67.9659   93.5269    8.9146 C.ar    1  UNL1        0.0207
     41 C          67.3963   94.7487    9.5721 C.ar    1  UNL1        0.0986
     42 N          66.9498   94.6912   11.0030 N.ar    1  UNL1       -0.2445
@<TRIPOS>UNITY_ATOM_ATTR
20 1
charge -1
@<TRIPOS>BOND
     1    11    12    1
     2    12    13    1
     3    12    14    1
     4    12    10    1
     5    10     1    1
     6     1     2   ar
     7     2    15    1
     8    15    16    1
     9    16    17    1
    10    16    18    1
    11    16    19    1
    12    19    20   ar
    13    19    21   ar
    14     2     3   ar
    15     3    22    1
    16    22    23    1
    17    23    24   ar
    18    24    25   ar
    19    25    26   ar
    20    26    29    1
    21    29    30   ar
    22    30    31   ar
    23    31    32   ar
    24    32    33   ar
    25    33    34   ar
    26    26    27   ar
    27    27    28   ar
    28     3     4   ar
    29     4     5   ar
    30     5     6   ar
    31     6     7   ar
    32     7    35    1
    33    35    36    1
    34    36    37    1
    35    37    38   ar
    36    38    39   ar
    37    39    40   ar
    38    40    41   ar
    39    41    42   ar
    40     7     8   ar
    41     8     9   ar
    42     9     1   ar
    43    28    23   ar
    44     9     4   ar
    45    34    29   ar
    46    42    37   ar
@<TRIPOS>MOLECULE
*****
 42 46 0 0 0
SMALL
GASTEIGER

@<TRIPOS>ATOM
      1 C          62.8405   86.5379   12.6430 C.ar    1  UNL1        0.0383
      2 C          63.6451   87.4076   13.5628 C.ar    1  UNL1        0.0433
      3 N          63.5142   88.8258   13.0920 N.ar    1  UNL1       -0.3260
      4 C          62.6288   88.8325   11.8812 C.ar    1  UNL1        0.0606
      5 C          62.1480   89.9435   10.9956 C.ar    1  UNL1        0.0203
      6 C          61.2507   89.6405    9.8324 C.ar    1  UNL1        0.0384
      7 C          60.8343   88.2264    9.5549 C.ar    1  UNL1        0.1392
      8 C          61.3151   87.1154   10.4405 C.ar    1  UNL1        0.0389
      9 C          62.2124   87.4185   11.6037 C.ar    1  UNL1        0.0256
     10 S          62.6903   85.0489   12.7446 S.3     1  UNL1       -0.1142
     11 C          64.5738   84.0817   12.8747 C.3     1  UNL1        0.0112
     12 C          63.4863   84.1516   11.8440 C.3     1  UNL1        0.0434
     13 C          62.3987   84.2213   10.8132 C.3     1  UNL1        0.0112
     14 C          64.2822   83.2542   10.9433 C.3     1  UNL1        0.0112
     15 C          64.4407   86.9412   14.7457 C.3     1  UNL1        0.0495
     16 C          63.7475   86.6207   16.0367 C.3     1  UNL1        0.0376
     17 C          64.0189   85.1615   15.8202 C.3     1  UNL1        0.0059
     18 C          63.4760   88.0799   16.2532 C.3     1  UNL1        0.0059
     19 C          63.0542   86.3001   17.3277 C.2     1  UNL1        0.0500
     20 O          62.9694   87.3348   18.4105 O.co2   1  UNL1       -0.5492
     21 O          62.4458   84.9450   17.5360 O.co2   1  UNL1       -0.5492
     22 C          64.1562   90.0265   13.7215 C.3     1  UNL1        0.1324
     23 C          64.7405   91.1043   12.8570 C.ar    1  UNL1        0.0004
     24 C          66.0264   91.7679   13.2521 C.ar    1  UNL1       -0.0024
     25 C          66.6107   92.8456   12.3878 C.ar    1  UNL1       -0.0002
     26 C          65.9091   93.2597   11.1283 C.ar    1  UNL1        0.0015
     27 C          64.6232   92.5960   10.7332 C.ar    1  UNL1       -0.0002
     28 C          64.0389   91.5184   11.5975 C.ar    1  UNL1       -0.0024
     29 C          66.4934   94.3373   10.2639 C.ar    1  UNL1        0.0192
     30 C          67.4018   93.9762    9.1263 C.ar    1  UNL1        0.0031
     31 C          67.9862   95.0538    8.2618 C.ar    1  UNL1        0.0207
     32 C          67.6620   96.4927    8.5350 C.ar    1  UNL1        0.0989
     33 N          66.7536   96.8538    9.6727 N.ar    1  UNL1       -0.2423
     34 C          66.1693   95.7762   10.5371 C.ar    1  UNL1        0.0988
     35 O          59.9369   87.9234    8.3917 O.3     1  UNL1       -0.4690
     36 C          59.6561   86.4997    8.0120 C.3     1  UNL1        0.2508
     37 C          60.7167   85.6796    7.3393 C.ar    1  UNL1        0.1026
     38 C          62.1101   85.6546    7.8942 C.ar    1  UNL1        0.0185
     39 C          63.1706   84.8345    7.2214 C.ar    1  UNL1        0.0029
     40 C          62.8379   84.0395    5.9937 C.ar    1  UNL1        0.0207
     41 C          61.4446   84.0645    5.4388 C.ar    1  UNL1        0.0986
     42 N          60.3840   84.8846    6.1116 N.ar    1  UNL1       -0.2445
@<TRIPOS>UNITY_ATOM_ATTR
20 1
charge -1
@<TRIPOS>BOND
     1    11    12    1
     2    12    13    1
     3    12    14    1
     4    12    10    1
     5    10     1    1
     6     1     2   ar
     7     2    15    1
     8    15    16    1
     9    16    17    1
    10    16    18    1
    11    16    19    1
    12    19    20   ar
    13    19    21   ar
    14     2     3   ar
    15     3    22    1
    16    22    23    1
    17    23    24   ar
    18    24    25   ar
    19    25    26   ar
    20    26    29    1
    21    29    30   ar
    22    30    31   ar
    23    31    32   ar
    24    32    33   ar
    25    33    34   ar
    26    26    27   ar
    27    27    28   ar
    28     3     4   ar
    29     4     5   ar
    30     5     6   ar
    31     6     7   ar
    32     7    35    1
    33    35    36    1
    34    36    37    1
    35    37    38   ar
    36    38    39   ar
    37    39    40   ar
    38    40    41   ar
    39    41    42   ar
    40     7     8   ar
    41     8     9   ar
    42     9     1   ar
    43    28    23   ar
    44     9     4   ar
    45    34    29   ar
    46    42    37   ar
