@<TRIPOS>MOLECULE
*****
 50 57 0 0 0
SMALL
GASTEIGER

@<TRIPOS>ATOM
      1 C          61.9088   95.3203   -4.2831 C.3     1  UNL1        0.1445
      2 C          63.2755   95.0212   -3.7420 C.3     1  UNL1        0.0322
      3 C          63.4250   94.3900   -2.3894 C.3     1  UNL1        0.0049
      4 C          64.7917   94.0910   -1.8483 C.3     1  UNL1        0.0002
      5 C          62.2079   94.0579   -1.5780 C.3     1  UNL1        0.0298
      6 C          60.8412   94.3570   -2.1191 C.3     1  UNL1        0.1418
      7 O          60.6917   94.9881   -3.4716 O.3     1  UNL1       -0.3537
      8 C          59.8327   93.9205   -1.0982 C.3     1  UNL1        0.1373
      9 O          58.3425   94.0330   -1.2267 O.3     1  UNL1       -0.3820
     10 C          60.5761   93.3517    0.0739 C.3     1  UNL1        0.0272
     11 C          59.0844   93.3326    0.2300 C.3     1  UNL1        0.0025
     12 C          60.1060   92.7673    1.3730 C.3     1  UNL1        0.0023
     13 C          58.6381   92.6823    1.6696 C.3     1  UNL1        0.0001
     14 C          58.1680   92.0980    2.9686 C.3     1  UNL1        0.0001
     15 C          59.1657   91.5986    3.9711 C.3     1  UNL1        0.0023
     16 C          58.6956   91.0143    5.2701 C.3     1  UNL1        0.0251
     17 C          57.7670   90.5470    6.3514 C.3     1  UNL1        0.0024
     18 C          57.3753   91.3514    4.6432 C.3     1  UNL1        0.0024
     19 C          59.6935   90.5149    6.2726 C.3     1  UNL1        0.1177
     20 C          61.1614   90.5998    5.9760 C.3     1  UNL1        0.0296
     21 C          61.6315   91.1842    4.6770 C.3     1  UNL1        0.0025
     22 C          60.6337   91.6836    3.6745 C.3     1  UNL1        0.0002
     23 C          62.1016   91.7685    3.3779 C.3     1  UNL1        0.0000
     24 C          61.1038   92.2679    2.3755 C.3     1  UNL1        0.0001
     25 C          62.5717   92.3529    2.0789 C.3     1  UNL1        0.0000
     26 C          63.0419   92.9372    0.7798 C.3     1  UNL1        0.0002
     27 C          62.0441   93.4366   -0.2226 C.3     1  UNL1        0.0046
     28 C          63.4721   93.5865   -0.6565 C.3     1  UNL1        0.0002
     29 H          57.9214   93.6785   -0.4281 H       1  UNL1        0.2104
     30 C          61.7592   95.9514   -5.6356 C.3     1  UNL1        0.1664
     31 C          60.5349   95.6800   -6.4587 C.3     1  UNL1        0.1156
     32 C          61.2199   94.5040   -7.0897 C.3     1  UNL1        0.0319
     33 C          59.8500   96.8559   -5.8277 C.3     1  UNL1        0.0319
     34 O          59.3107   95.4085   -7.2818 O.3     1  UNL1       -0.3843
     35 H          59.4643   94.6331   -7.8439 H       1  UNL1        0.2103
     36 O          62.8340   96.8540   -6.1650 O.3     1  UNL1       -0.3514
     37 C          64.5213   95.0787   -7.0316 C.3     1  UNL1        0.0346
     38 C          64.2418   96.3514   -6.2886 C.3     1  UNL1        0.1423
     39 O          59.2234   89.9305    7.5717 O.3     1  UNL1       -0.3320
     40 C          60.1350   89.0463    8.3698 C.3     1  UNL1        0.2518
     41 C          60.9377   89.6209    9.4992 C.3     1  UNL1        0.1343
     42 N          61.8493   88.7367   10.2974 N.3     1  UNL1       -0.2651
     43 C          61.9582   87.2778    9.9662 C.3     1  UNL1        0.1048
     44 C          61.1555   86.7031    8.8369 C.3     1  UNL1        0.1621
     45 O          60.2439   87.5873    8.0386 O.3     1  UNL1       -0.3280
     46 C          62.6519   89.3114   11.4267 C.3     1  UNL1        0.0898
     47 C          63.0704   90.6927   11.8352 C.3     1  UNL1        0.0897
     48 N          63.7872   90.1241   13.0239 N.3     1  UNL1       -0.2691
     49 C          64.5898   90.6988   14.1532 C.3     1  UNL1        0.0897
     50 C          63.3687   88.7428   12.6154 C.3     1  UNL1        0.0897
@<TRIPOS>BOND
     1    37    38    1
     2    38    36    1
     3    30    36    1
     4    30     1    1
     5     1     2    1
     6     2     3    1
     7     3     4    1
     8     5     3    1
     9     5     6    1
    10     6     7    1
    11     6     8    1
    12     8     9    1
    13     8    10    1
    14    10    11    1
    15    10    12    1
    16    12    13    1
    17    13    14    1
    18    15    14    1
    19    15    16    1
    20    16    17    1
    21    16    18    1
    22    16    19    1
    23    19    39    1
    24    40    39    1
    25    40    41    1
    26    41    42    1
    27    42    46    1
    28    46    47    1
    29    47    48    1
    30    48    49    1
    31    48    50    1
    32    42    43    1
    33    43    44    1
    34    44    45    1
    35    19    20    1
    36    20    21    1
    37    22    21    1
    38    22    23    1
    39    24    23    1
    40    24    25    1
    41    25    26    1
    42    26    27    1
    43    27    28    1
    44    30    31    1
    45    31    32    1
    46    31    33    1
    47    31    34    1
    48     7     1    1
    49    27    10    1
    50    27     5    1
    51    24    12    1
    52    22    15    1
    53    45    40    1
    54    24    22    1
    55    50    46    1
    56     9    29    1
    57    34    35    1
@<TRIPOS>MOLECULE
*****
 50 57 0 0 0
SMALL
GASTEIGER

@<TRIPOS>ATOM
      1 C          62.6917   95.3331   -3.9181 C.3     1  UNL1        0.1445
      2 C          64.0048   94.9781   -3.2859 C.3     1  UNL1        0.0322
      3 C          64.0347   94.3169   -1.9397 C.3     1  UNL1        0.0049
      4 C          65.3479   93.9620   -1.3076 C.3     1  UNL1        0.0002
      5 C          62.7515   94.0108   -1.2259 C.3     1  UNL1        0.0298
      6 C          61.4383   94.3658   -1.8581 C.3     1  UNL1        0.1418
      7 O          61.4084   95.0270   -3.2042 O.3     1  UNL1       -0.3537
      8 C          60.3444   93.9444   -0.9223 C.3     1  UNL1        0.1373
      9 O          58.8719   94.1095   -1.1561 O.3     1  UNL1       -0.3820
     10 C          60.9814   93.3289    0.2882 C.3     1  UNL1        0.0272
     11 C          59.4824   93.3572    0.3354 C.3     1  UNL1        0.0025
     12 C          60.3990   92.7364    1.5371 C.3     1  UNL1        0.0023
     13 C          58.9114   92.6954    1.7247 C.3     1  UNL1        0.0001
     14 C          58.3290   92.1029    2.9736 C.3     1  UNL1        0.0001
     15 C          59.2342   91.5514    4.0349 C.3     1  UNL1        0.0023
     16 C          58.6519   90.9589    5.2838 C.3     1  UNL1        0.0251
     17 C          57.6321   90.5029    6.2848 C.3     1  UNL1        0.0024
     18 C          57.3924   91.3520    4.5702 C.3     1  UNL1        0.0024
     19 C          59.5572   90.4074    6.3451 C.3     1  UNL1        0.1177
     20 C          61.0448   90.4485    6.1575 C.3     1  UNL1        0.0296
     21 C          61.6272   91.0410    4.9086 C.3     1  UNL1        0.0025
     22 C          60.7220   91.5924    3.8473 C.3     1  UNL1        0.0002
     23 C          62.2096   91.6335    3.6597 C.3     1  UNL1        0.0000
     24 C          61.3043   92.1849    2.5984 C.3     1  UNL1        0.0001
     25 C          62.7920   92.2260    2.4108 C.3     1  UNL1        0.0000
     26 C          63.3743   92.8185    1.1619 C.3     1  UNL1        0.0002
     27 C          62.4691   93.3700    0.1006 C.3     1  UNL1        0.0046
     28 C          63.9291   93.4799   -0.2254 C.3     1  UNL1        0.0002
     29 H          58.3824   93.7543   -0.3977 H       1  UNL1        0.2104
     30 C          62.6618   95.9943   -5.2642 C.3     1  UNL1        0.1664
     31 C          61.4847   95.7941   -6.1722 C.3     1  UNL1        0.1156
     32 C          62.2394   94.7327   -6.9165 C.3     1  UNL1        0.0319
     33 C          60.7300   96.8554   -5.4278 C.3     1  UNL1        0.0319
     34 O          60.3076   95.5939   -7.0801 O.3     1  UNL1       -0.3843
     35 H          60.5140   94.9036   -7.7296 H       1  UNL1        0.2103
     36 O          63.8090   96.8557   -5.7023 O.3     1  UNL1       -0.3514
     37 C          65.8506   95.6517   -6.7664 C.3     1  UNL1        0.0346
     38 C          65.2147   96.3430   -5.5969 C.3     1  UNL1        0.1423
     39 O          58.9748   89.8149    7.5940 O.3     1  UNL1       -0.3320
     40 C          59.8685   89.4718    8.7488 C.3     1  UNL1        0.2518
     41 C          60.5534   88.1381    8.7968 C.3     1  UNL1        0.1343
     42 N          61.4471   87.7951    9.9516 N.3     1  UNL1       -0.2651
     43 C          61.6560   88.7857   11.0584 C.3     1  UNL1        0.1048
     44 C          60.9711   90.1194   11.0105 C.3     1  UNL1        0.1621
     45 O          60.0774   90.4625    9.8556 O.3     1  UNL1       -0.3280
     46 C          62.1319   86.4615    9.9996 C.3     1  UNL1        0.0898
     47 C          62.8034   85.5770    8.9912 C.3     1  UNL1        0.0897
     48 N          63.1005   84.5753   10.0674 N.3     1  UNL1       -0.2691
     49 C          63.7853   83.2416   10.1154 C.3     1  UNL1        0.0897
     50 C          62.4290   85.4598   11.0759 C.3     1  UNL1        0.0897
@<TRIPOS>BOND
     1    37    38    1
     2    38    36    1
     3    30    36    1
     4    30     1    1
     5     1     2    1
     6     2     3    1
     7     3     4    1
     8     5     3    1
     9     5     6    1
    10     6     7    1
    11     6     8    1
    12     8     9    1
    13     8    10    1
    14    10    11    1
    15    10    12    1
    16    12    13    1
    17    13    14    1
    18    15    14    1
    19    15    16    1
    20    16    17    1
    21    16    18    1
    22    16    19    1
    23    19    39    1
    24    40    39    1
    25    40    41    1
    26    41    42    1
    27    42    46    1
    28    46    47    1
    29    47    48    1
    30    48    49    1
    31    48    50    1
    32    42    43    1
    33    43    44    1
    34    44    45    1
    35    19    20    1
    36    20    21    1
    37    22    21    1
    38    22    23    1
    39    24    23    1
    40    24    25    1
    41    25    26    1
    42    26    27    1
    43    27    28    1
    44    30    31    1
    45    31    32    1
    46    31    33    1
    47    31    34    1
    48     7     1    1
    49    27    10    1
    50    27     5    1
    51    24    12    1
    52    22    15    1
    53    45    40    1
    54    24    22    1
    55    50    46    1
    56     9    29    1
    57    34    35    1
@<TRIPOS>MOLECULE
*****
 50 57 0 0 0
SMALL
GASTEIGER

@<TRIPOS>ATOM
      1 C          59.9280   89.5155    7.0768 C.3     1  UNL1        0.1445
      2 C          58.5504   89.9607    6.6844 C.3     1  UNL1        0.0322
      3 C          58.3589   90.8319    5.4783 C.3     1  UNL1        0.0049
      4 C          56.9813   91.2770    5.0858 C.3     1  UNL1        0.0002
      5 C          59.5450   91.2578    4.6647 C.3     1  UNL1        0.0298
      6 C          60.9226   90.8126    5.0572 C.3     1  UNL1        0.1418
      7 O          61.1141   89.9415    6.2632 O.3     1  UNL1       -0.3537
      8 C          61.8944   91.3872    4.0696 C.3     1  UNL1        0.1373
      9 O          63.3820   91.1952    4.0825 O.3     1  UNL1       -0.3820
     10 C          61.1174   92.1875    3.0667 C.3     1  UNL1        0.0272
     11 C          62.5975   92.1764    2.8236 C.3     1  UNL1        0.0025
     12 C          61.5444   92.9788    1.8661 C.3     1  UNL1        0.0023
     13 C          62.9964   93.0588    1.4982 C.3     1  UNL1        0.0001
     14 C          63.4234   93.8500    0.2976 C.3     1  UNL1        0.0001
     15 C          62.3985   94.5613   -0.5352 C.3     1  UNL1        0.0023
     16 C          62.8256   95.3526   -1.7358 C.3     1  UNL1        0.0251
     17 C          63.7159   95.9715   -2.7722 C.3     1  UNL1        0.0024
     18 C          64.1597   94.8562   -1.2629 C.3     1  UNL1        0.0024
     19 C          61.8005   96.0639   -2.5687 C.3     1  UNL1        0.1177
     20 C          60.3486   95.9838   -2.2008 C.3     1  UNL1        0.0296
     21 C          59.9215   95.1926   -1.0002 C.3     1  UNL1        0.0025
     22 C          60.9465   94.4813   -0.1674 C.3     1  UNL1        0.0002
     23 C          59.4945   94.4013    0.2005 C.3     1  UNL1        0.0000
     24 C          60.5194   93.6901    1.0333 C.3     1  UNL1        0.0001
     25 C          59.0675   93.6100    1.4011 C.3     1  UNL1        0.0000
     26 C          58.6404   92.8188    2.6017 C.3     1  UNL1        0.0002
     27 C          59.6653   92.1075    3.4345 C.3     1  UNL1        0.0046
     28 C          58.2574   91.9373    3.9231 C.3     1  UNL1        0.0002
     29 H          63.7760   91.6719    3.3353 H       1  UNL1        0.2104
     30 C          60.1196   88.6445    8.2829 C.3     1  UNL1        0.1664
     31 C          60.4415   89.2627    9.6111 C.3     1  UNL1        0.1156
     32 C          61.5513   90.0476    8.9767 C.3     1  UNL1        0.0319
     33 C          59.3318   88.4777   10.2454 C.3     1  UNL1        0.0319
     34 O          60.7635   89.8809   10.9393 O.3     1  UNL1       -0.3843
     35 H          61.5095   90.4927   10.8389 H       1  UNL1        0.2103
     36 O          59.9892   87.1551    8.1606 O.3     1  UNL1       -0.3514
     37 C          62.3624   86.3039    8.7874 C.3     1  UNL1        0.0346
     38 C          60.8745   86.2557    8.9713 C.3     1  UNL1        0.1423
     39 O          62.2276   96.8551   -3.7693 O.3     1  UNL1       -0.3320
     40 C          62.6800   96.1472   -5.0119 C.3     1  UNL1        0.2518
     41 C          64.1446   96.0087   -5.3052 C.3     1  UNL1        0.1343
     42 N          64.5969   95.3008   -6.5478 N.3     1  UNL1       -0.2651
     43 C          63.5848   94.7314   -7.4972 C.3     1  UNL1        0.1048
     44 C          62.1203   94.8699   -7.2040 C.3     1  UNL1        0.1621
     45 O          61.6679   95.5778   -5.9614 O.3     1  UNL1       -0.3280
     46 C          66.0614   95.1623   -6.8410 C.3     1  UNL1        0.0898
     47 C          67.1694   96.1139   -7.1829 C.3     1  UNL1        0.0897
     48 N          68.1327   94.9663   -7.2556 N.3     1  UNL1       -0.2691
     49 C          69.5972   94.8278   -7.5488 C.3     1  UNL1        0.0897
     50 C          67.0247   94.0147   -6.9137 C.3     1  UNL1        0.0897
@<TRIPOS>BOND
     1    37    38    1
     2    38    36    1
     3    30    36    1
     4    30     1    1
     5     1     2    1
     6     2     3    1
     7     3     4    1
     8     5     3    1
     9     5     6    1
    10     6     7    1
    11     6     8    1
    12     8     9    1
    13     8    10    1
    14    10    11    1
    15    10    12    1
    16    12    13    1
    17    13    14    1
    18    15    14    1
    19    15    16    1
    20    16    17    1
    21    16    18    1
    22    16    19    1
    23    19    39    1
    24    40    39    1
    25    40    41    1
    26    41    42    1
    27    42    46    1
    28    46    47    1
    29    47    48    1
    30    48    49    1
    31    48    50    1
    32    42    43    1
    33    43    44    1
    34    44    45    1
    35    19    20    1
    36    20    21    1
    37    22    21    1
    38    22    23    1
    39    24    23    1
    40    24    25    1
    41    25    26    1
    42    26    27    1
    43    27    28    1
    44    30    31    1
    45    31    32    1
    46    31    33    1
    47    31    34    1
    48     7     1    1
    49    27    10    1
    50    27     5    1
    51    24    12    1
    52    22    15    1
    53    45    40    1
    54    24    22    1
    55    50    46    1
    56     9    29    1
    57    34    35    1
