@<TRIPOS>MOLECULE
*****
 14 15 0 0 0
SMALL
GASTEIGER

@<TRIPOS>ATOM
      1 C          65.2841   91.3954   14.4619 C.ar    1  UNL1        0.0479
      2 C          66.7167   91.4487   14.9035 C.ar    1  UNL1        0.0085
      3 C          67.5263   92.0282   13.7816 C.ar    1  UNL1        0.0071
      4 C          66.5941   92.3331   12.6467 C.ar    1  UNL1        0.0310
      5 S          65.2084   91.9420   13.0671 S.2     1  UNL1       -0.0853
      6 C          66.9800   92.9252   11.3235 C.ar    1  UNL1        0.0252
      7 C          67.8795   92.1643   10.3951 C.ar    1  UNL1        0.0036
      8 C          68.2653   92.7564    9.0721 C.ar    1  UNL1        0.0207
      9 C          67.7517   94.1093    8.6774 C.ar    1  UNL1        0.0989
     10 N          66.8522   94.8702    9.6058 N.ar    1  UNL1       -0.2423
     11 C          66.4664   94.2781   10.9289 C.ar    1  UNL1        0.0993
     12 N          63.6685   91.6444   16.4813 N.2     1  UNL1       -0.2964
     13 C          64.1299   90.8851   15.2728 C.2     1  UNL1        0.0951
     14 H          62.9110   91.3095   17.0135 H       1  UNL1        0.1868
@<TRIPOS>BOND
     1    12    13    2
     2    13     1    1
     3     1     2   ar
     4     2     3   ar
     5     3     4   ar
     6     4     6    1
     7     6     7   ar
     8     7     8   ar
     9     8     9   ar
    10     9    10   ar
    11    10    11   ar
    12     4     5   ar
    13     5     1   ar
    14    11     6   ar
    15    12    14    1
@<TRIPOS>MOLECULE
*****
 14 15 0 0 0
SMALL
GASTEIGER

@<TRIPOS>ATOM
      1 C          67.4328   94.3191    9.1091 C.ar    1  UNL1        0.0479
      2 C          68.2344   93.0629    8.9370 C.ar    1  UNL1        0.0085
      3 C          67.9476   92.1665   10.1050 C.ar    1  UNL1        0.0071
      4 C          66.9688   92.8685   10.9989 C.ar    1  UNL1        0.0310
      5 S          66.6506   94.1989   10.3834 S.2     1  UNL1       -0.0853
      6 C          66.4068   92.3340   12.2828 C.ar    1  UNL1        0.0252
      7 C          67.3176   92.0550   13.4415 C.ar    1  UNL1        0.0036
      8 C          66.7556   91.5205   14.7254 C.ar    1  UNL1        0.0207
      9 C          65.2829   91.2649   14.8506 C.ar    1  UNL1        0.0989
     10 N          64.3721   91.5439   13.6919 N.ar    1  UNL1       -0.2423
     11 C          64.9341   92.0784   12.4080 C.ar    1  UNL1        0.0993
     12 N          67.7895   96.8547    8.6693 N.2     1  UNL1       -0.2964
     13 C          67.4162   95.4898    8.1715 C.2     1  UNL1        0.0951
     14 H          67.7786   97.6231    8.0539 H       1  UNL1        0.1868
@<TRIPOS>BOND
     1    12    13    2
     2    13     1    1
     3     1     2   ar
     4     2     3   ar
     5     3     4   ar
     6     4     6    1
     7     6     7   ar
     8     7     8   ar
     9     8     9   ar
    10     9    10   ar
    11    10    11   ar
    12     4     5   ar
    13     5     1   ar
    14    11     6   ar
    15    12    14    1
@<TRIPOS>MOLECULE
*****
 14 15 0 0 0
SMALL
GASTEIGER

@<TRIPOS>ATOM
      1 C          60.4770   87.4048    8.9649 C.ar    1  UNL1        0.0479
      2 C          61.2276   88.3512    9.8543 C.ar    1  UNL1        0.0085
      3 C          62.1892   87.5481   10.6791 C.ar    1  UNL1        0.0071
      4 C          62.0330   86.1054   10.2994 C.ar    1  UNL1        0.0310
      5 S          60.9748   86.0168    9.2400 S.2     1  UNL1       -0.0853
      6 C          62.8004   84.9534   10.8777 C.ar    1  UNL1        0.0252
      7 C          63.5391   84.0139    9.9713 C.ar    1  UNL1        0.0036
      8 C          64.3064   82.8621   10.5496 C.ar    1  UNL1        0.0207
      9 C          64.3350   82.6497   12.0342 C.ar    1  UNL1        0.0989
     10 N          63.5962   83.5893   12.9406 N.ar    1  UNL1       -0.2423
     11 C          62.8289   84.7411   12.3623 C.ar    1  UNL1        0.0993
     12 N          58.4271   86.7526    7.5080 N.2     1  UNL1       -0.2964
     13 C          59.4151   87.7804    7.9743 C.2     1  UNL1        0.0951
     14 H          57.7301   86.9992    6.8579 H       1  UNL1        0.1868
@<TRIPOS>BOND
     1    12    13    2
     2    13     1    1
     3     1     2   ar
     4     2     3   ar
     5     3     4   ar
     6     4     6    1
     7     6     7   ar
     8     7     8   ar
     9     8     9   ar
    10     9    10   ar
    11    10    11   ar
    12     4     5   ar
    13     5     1   ar
    14    11     6   ar
    15    12    14    1
@<TRIPOS>MOLECULE
*****
 14 15 0 0 0
SMALL
GASTEIGER

@<TRIPOS>ATOM
      1 C          63.5234   90.2385   12.3902 C.ar    1  UNL1        0.0479
      2 C          63.5666   91.2499   11.2833 C.ar    1  UNL1        0.0085
      3 C          62.8168   90.6875   10.1122 C.ar    1  UNL1        0.0071
      4 C          62.3102   89.3286   10.4953 C.ar    1  UNL1        0.0310
      5 S          62.7469   89.0511   11.9032 S.2     1  UNL1       -0.0853
      6 C          61.5078   88.4087    9.6235 C.ar    1  UNL1        0.0252
      7 C          61.9745   87.0030    9.3868 C.ar    1  UNL1        0.0036
      8 C          61.1720   86.0831    8.5151 C.ar    1  UNL1        0.0207
      9 C          59.9030   86.5691    7.8800 C.ar    1  UNL1        0.0989
     10 N          59.4363   87.9748    8.1167 N.ar    1  UNL1       -0.2423
     11 C          60.2387   88.8946    8.9885 C.ar    1  UNL1        0.0993
     12 N          63.4743   91.2258   14.7929 N.2     1  UNL1       -0.2964
     13 C          64.1472   90.3883   13.7462 C.2     1  UNL1        0.0951
     14 H          63.8837   91.3241   15.6828 H       1  UNL1        0.1868
@<TRIPOS>BOND
     1    12    13    2
     2    13     1    1
     3     1     2   ar
     4     2     3   ar
     5     3     4   ar
     6     4     6    1
     7     6     7   ar
     8     7     8   ar
     9     8     9   ar
    10     9    10   ar
    11    10    11   ar
    12     4     5   ar
    13     5     1   ar
    14    11     6   ar
    15    12    14    1
@<TRIPOS>MOLECULE
*****
 14 15 0 0 0
SMALL
GASTEIGER

@<TRIPOS>ATOM
      1 C          60.9614   86.4328    8.7860 C.ar    1  UNL1        0.0479
      2 C          62.0169   85.7758    7.9468 C.ar    1  UNL1        0.0085
      3 C          62.9347   85.0218    8.8628 C.ar    1  UNL1        0.0071
      4 C          62.4463   85.2128   10.2682 C.ar    1  UNL1        0.0310
      5 S          61.2268   86.0848   10.2207 S.2     1  UNL1       -0.0853
      6 C          63.0684   84.6334   11.5041 C.ar    1  UNL1        0.0252
      7 C          63.6910   83.2694   11.4616 C.ar    1  UNL1        0.0036
      8 C          64.3130   82.6901   12.6975 C.ar    1  UNL1        0.0207
      9 C          64.3125   83.4748   13.9759 C.ar    1  UNL1        0.0989
     10 N          63.6900   84.8388   14.0184 N.ar    1  UNL1       -0.2423
     11 C          63.0679   85.4181   12.7825 C.ar    1  UNL1        0.0993
     12 N          58.5379   86.6565    7.8766 N.2     1  UNL1       -0.2964
     13 C          59.8377   87.2876    8.2795 C.2     1  UNL1        0.0951
     14 H          57.8004   87.2175    7.5442 H       1  UNL1        0.1868
@<TRIPOS>BOND
     1    12    13    2
     2    13     1    1
     3     1     2   ar
     4     2     3   ar
     5     3     4   ar
     6     4     6    1
     7     6     7   ar
     8     7     8   ar
     9     8     9   ar
    10     9    10   ar
    11    10    11   ar
    12     4     5   ar
    13     5     1   ar
    14    11     6   ar
    15    12    14    1
@<TRIPOS>MOLECULE
*****
 14 15 0 0 0
SMALL
GASTEIGER

@<TRIPOS>ATOM
      1 C          63.6014   85.4852   15.8941 C.ar    1  UNL1        0.0479
      2 C          64.9573   85.7739   15.3211 C.ar    1  UNL1        0.0085
      3 C          65.1558   84.8848   14.1295 C.ar    1  UNL1        0.0071
      4 C          63.9226   84.0467   13.9659 C.ar    1  UNL1        0.0310
      5 S          62.9620   84.4177   15.0565 S.2     1  UNL1       -0.0853
      6 C          63.6908   83.0180   12.8990 C.ar    1  UNL1        0.0252
      7 C          64.1136   83.2940   11.4866 C.ar    1  UNL1        0.0036
      8 C          63.8818   82.2653   10.4198 C.ar    1  UNL1        0.0207
      9 C          63.2272   80.9607   10.7654 C.ar    1  UNL1        0.0989
     10 N          62.8044   80.6848   12.1778 N.ar    1  UNL1       -0.2423
     11 C          63.0362   81.7134   13.2446 C.ar    1  UNL1        0.0993
     12 N          61.5004   86.2392   17.2235 N.2     1  UNL1       -0.2964
     13 C          62.9920   86.1477   17.0940 C.2     1  UNL1        0.0951
     14 H          61.1004   86.6740   18.0110 H       1  UNL1        0.1868
@<TRIPOS>BOND
     1    12    13    2
     2    13     1    1
     3     1     2   ar
     4     2     3   ar
     5     3     4   ar
     6     4     6    1
     7     6     7   ar
     8     7     8   ar
     9     8     9   ar
    10     9    10   ar
    11    10    11   ar
    12     4     5   ar
    13     5     1   ar
    14    11     6   ar
    15    12    14    1
@<TRIPOS>MOLECULE
*****
 14 15 0 0 0
SMALL
GASTEIGER

@<TRIPOS>ATOM
      1 C          63.3001   84.0340   11.3606 C.ar    1  UNL1        0.0479
      2 C          63.8472   83.7496    9.9931 C.ar    1  UNL1        0.0085
      3 C          63.1876   84.6873    9.0258 C.ar    1  UNL1        0.0071
      4 C          62.2330   85.5513    9.7955 C.ar    1  UNL1        0.0310
      5 S          62.3025   85.1475   11.2384 S.2     1  UNL1       -0.0853
      6 C          61.3618   86.6297    9.2227 C.ar    1  UNL1        0.0252
      7 C          60.2814   86.2797    8.2428 C.ar    1  UNL1        0.0036
      8 C          59.4102   87.3581    7.6700 C.ar    1  UNL1        0.0207
      9 C          59.6194   88.7865    8.0772 C.ar    1  UNL1        0.0989
     10 N          60.6998   89.1365    9.0571 N.ar    1  UNL1       -0.2423
     11 C          61.5709   88.0581    9.6298 C.ar    1  UNL1        0.0993
     12 N          64.7207   82.2455   12.5989 N.2     1  UNL1       -0.2964
     13 C          63.6834   83.3287   12.6277 C.2     1  UNL1        0.0951
     14 H          64.9722   81.7826   13.4305 H       1  UNL1        0.1868
@<TRIPOS>BOND
     1    12    13    2
     2    13     1    1
     3     1     2   ar
     4     2     3   ar
     5     3     4   ar
     6     4     6    1
     7     6     7   ar
     8     7     8   ar
     9     8     9   ar
    10     9    10   ar
    11    10    11   ar
    12     4     5   ar
    13     5     1   ar
    14    11     6   ar
    15    12    14    1
@<TRIPOS>MOLECULE
*****
 14 15 0 0 0
SMALL
GASTEIGER

@<TRIPOS>ATOM
      1 C          66.3008   92.8413   13.9285 C.ar    1  UNL1        0.0479
      2 C          66.2601   93.6083   12.6400 C.ar    1  UNL1        0.0085
      3 C          65.2966   92.9185   11.7203 C.ar    1  UNL1        0.0071
      4 C          64.7419   91.7252   12.4403 C.ar    1  UNL1        0.0310
      5 S          65.3625   91.6775   13.8051 S.2     1  UNL1       -0.0853
      6 C          63.7420   90.7507   11.8918 C.ar    1  UNL1        0.0252
      7 C          63.0807   91.0175   10.5722 C.ar    1  UNL1        0.0036
      8 C          62.0809   90.0431   10.0238 C.ar    1  UNL1        0.0207
      9 C          61.7424   88.8018   10.7950 C.ar    1  UNL1        0.0989
     10 N          62.4038   88.5351   12.1147 N.ar    1  UNL1       -0.2423
     11 C          63.4036   89.5095   12.6631 C.ar    1  UNL1        0.0993
     12 N          66.5503   93.0542   16.5058 N.2     1  UNL1       -0.2964
     13 C          67.1337   93.1788   15.1295 C.2     1  UNL1        0.0951
     14 H          67.0969   93.2758   17.2941 H       1  UNL1        0.1868
@<TRIPOS>BOND
     1    12    13    2
     2    13     1    1
     3     1     2   ar
     4     2     3   ar
     5     3     4   ar
     6     4     6    1
     7     6     7   ar
     8     7     8   ar
     9     8     9   ar
    10     9    10   ar
    11    10    11   ar
    12     4     5   ar
    13     5     1   ar
    14    11     6   ar
    15    12    14    1
@<TRIPOS>MOLECULE
*****
 14 15 0 0 0
SMALL
GASTEIGER

@<TRIPOS>ATOM
      1 C          60.8083   88.4898   10.0458 C.ar    1  UNL1        0.0479
      2 C          60.2498   87.6444    8.9397 C.ar    1  UNL1        0.0085
      3 C          60.8498   86.2745    9.0552 C.ar    1  UNL1        0.0071
      4 C          61.7792   86.2733   10.2327 C.ar    1  UNL1        0.0310
      5 S          61.7535   87.6424   10.8449 S.2     1  UNL1       -0.0853
      6 C          62.5915   85.1075   10.7134 C.ar    1  UNL1        0.0252
      7 C          63.3703   84.2810    9.7335 C.ar    1  UNL1        0.0036
      8 C          64.1826   83.1153   10.2143 C.ar    1  UNL1        0.0207
      9 C          64.2162   82.7761   11.6750 C.ar    1  UNL1        0.0989
     10 N          63.4375   83.6026   12.6550 N.ar    1  UNL1       -0.2423
     11 C          62.6252   84.7683   12.1742 C.ar    1  UNL1        0.0993
     12 N          60.9380   90.5858   11.5756 N.2     1  UNL1       -0.2964
     13 C          60.4794   89.9298   10.3070 C.2     1  UNL1        0.0951
     14 H          60.7221   91.5309   11.7470 H       1  UNL1        0.1868
@<TRIPOS>BOND
     1    12    13    2
     2    13     1    1
     3     1     2   ar
     4     2     3   ar
     5     3     4   ar
     6     4     6    1
     7     6     7   ar
     8     7     8   ar
     9     8     9   ar
    10     9    10   ar
    11    10    11   ar
    12     4     5   ar
    13     5     1   ar
    14    11     6   ar
    15    12    14    1
