@<TRIPOS>MOLECULE
*****
 32 35 0 0 0
SMALL
GASTEIGER

@<TRIPOS>ATOM
      1 C          62.1350   87.8961   10.5331 C.2     1  UNL1        0.3031
      2 O          61.5597   88.5651    9.3200 O.2     1  UNL1       -0.2649
      3 N          62.7767   88.7196   11.6102 N.am    1  UNL1       -0.2699
      4 C          62.8431   90.2120   11.4743 C.3     1  UNL1        0.0944
      5 C          63.4847   91.0354   12.5514 C.3     1  UNL1        0.0283
      6 C          64.0600   90.3665   13.7645 C.3     1  UNL1        0.0527
      7 C          63.9937   88.8742   13.9005 C.3     1  UNL1        0.1343
      8 O          64.5690   88.2052   15.1136 O.3     1  UNL1       -0.3824
      9 C          63.3520   88.0507   12.8233 C.3     1  UNL1        0.1233
     10 H          64.4437   87.2459   15.0438 H       1  UNL1        0.2104
     11 C          64.7017   91.1900   14.8417 C.ar    1  UNL1       -0.0170
     12 C          63.9339   91.5281   16.0850 C.ar    1  UNL1        0.0165
     13 C          64.5755   92.3515   17.1621 C.ar    1  UNL1        0.0985
     14 N          65.9851   92.8369   16.9958 N.ar    1  UNL1       -0.2439
     15 C          66.7529   92.4988   15.7524 C.ar    1  UNL1        0.0811
     16 C          68.1624   92.9842   15.5861 C.ar    1  UNL1        0.0214
     17 C          68.9303   92.6461   14.3427 C.ar    1  UNL1        0.0312
     18 C          68.2886   91.8226   13.2655 C.ar    1  UNL1        0.1402
     19 F          69.0564   91.4845   12.0221 F       1  UNL1       -0.2042
     20 C          66.8791   91.3372   13.4318 C.ar    1  UNL1        0.0308
     21 C          66.1112   91.6753   14.6753 C.ar    1  UNL1        0.0160
     22 O          61.0090   85.6308    9.9415 O.2     1  UNL1       -0.2648
     23 C          62.0687   86.4038   10.6691 C.2     1  UNL1        0.3034
     24 N          63.0621   85.6845   11.5327 N.am    1  UNL1       -0.2766
     25 H          63.7576   86.1918   12.0103 H       1  UNL1        0.1553
     26 C          62.9957   84.1922   11.6687 C.ar    1  UNL1        0.0507
     27 C          63.4957   83.3150   10.5594 C.ar    1  UNL1        0.0155
     28 C          63.4294   81.8227   10.6954 C.ar    1  UNL1        0.0127
     29 C          62.8630   81.2074   11.9407 C.ar    1  UNL1        0.0578
     30 CL         62.7966   79.7151   12.0767 Cl      1  UNL1       -0.0822
     31 C          62.3630   82.0846   13.0500 C.ar    1  UNL1        0.0127
     32 C          62.4293   83.5770   12.9140 C.ar    1  UNL1        0.0155
@<TRIPOS>BOND
     1    22    23    2
     2    23    24   am
     3    24    26    1
     4    26    27   ar
     5    27    28   ar
     6    28    29   ar
     7    29    30    1
     8    29    31   ar
     9    31    32   ar
    10    23     1    1
    11     1     2    2
    12     1     3   am
    13     3     4    1
    14     4     5    1
    15     5     6    1
    16     6    11    1
    17    11    12   ar
    18    12    13   ar
    19    13    14   ar
    20    14    15   ar
    21    15    16   ar
    22    16    17   ar
    23    17    18   ar
    24    18    19    1
    25    18    20   ar
    26    20    21   ar
    27     6     7    1
    28     7     8    1
    29     7     9    1
    30    32    26   ar
    31     9     3    1
    32    21    11   ar
    33    21    15   ar
    34    24    25    1
    35     8    10    1
@<TRIPOS>MOLECULE
*****
 32 35 0 0 0
SMALL
GASTEIGER

@<TRIPOS>ATOM
      1 C          58.9561   90.7631    5.5966 C.2     1  UNL1        0.3031
      2 O          57.5226   91.1985    5.6703 O.2     1  UNL1       -0.2649
      3 N          59.8845   91.4031    4.6075 N.am    1  UNL1       -0.2699
      4 C          59.3793   92.4787    3.6920 C.3     1  UNL1        0.0944
      5 C          60.3077   93.1188    2.7029 C.3     1  UNL1        0.0283
      6 C          61.7412   92.6833    2.6291 C.3     1  UNL1        0.0527
      7 C          62.2463   91.6077    3.5445 C.3     1  UNL1        0.1343
      8 O          63.6798   91.1722    3.4708 O.3     1  UNL1       -0.3824
      9 C          61.3179   90.9676    4.5337 C.3     1  UNL1        0.1233
     10 H          63.8398   90.4745    4.1253 H       1  UNL1        0.2104
     11 C          62.6696   93.3234    1.6399 C.ar    1  UNL1       -0.0170
     12 C          63.9987   93.8517    2.0919 C.ar    1  UNL1        0.0165
     13 C          64.9269   94.4918    1.1027 C.ar    1  UNL1        0.0985
     14 N          64.5261   94.6036   -0.3384 N.ar    1  UNL1       -0.2439
     15 C          63.1970   94.0752   -0.7904 C.ar    1  UNL1        0.0811
     16 C          62.7962   94.1870   -2.2315 C.ar    1  UNL1        0.0214
     17 C          61.4671   93.6586   -2.6835 C.ar    1  UNL1        0.0312
     18 C          60.5388   93.0185   -1.6943 C.ar    1  UNL1        0.1402
     19 F          59.2097   92.4901   -2.1462 F       1  UNL1       -0.2042
     20 C          60.9396   92.9068   -0.2531 C.ar    1  UNL1        0.0308
     21 C          62.2688   93.4351    0.1988 C.ar    1  UNL1        0.0160
     22 O          59.4591   88.2569    6.0612 O.2     1  UNL1       -0.2648
     23 C          59.4612   89.6875    6.5120 C.2     1  UNL1        0.3034
     24 N          59.9685   90.0426    7.8783 N.am    1  UNL1       -0.2766
     25 H          59.9699   90.9816    8.1742 H       1  UNL1        0.1553
     26 C          60.4736   88.9670    8.7937 C.ar    1  UNL1        0.0507
     27 C          59.9153   87.5781    8.6988 C.ar    1  UNL1        0.0155
     28 C          60.4204   86.5025    9.6142 C.ar    1  UNL1        0.0127
     29 C          61.4840   86.8159   10.6245 C.ar    1  UNL1        0.0578
     30 CL         61.9891   85.7404   11.5399 Cl      1  UNL1       -0.0822
     31 C          62.0423   88.2049   10.7194 C.ar    1  UNL1        0.0127
     32 C          61.5371   89.2805    9.8039 C.ar    1  UNL1        0.0155
@<TRIPOS>BOND
     1    22    23    2
     2    23    24   am
     3    24    26    1
     4    26    27   ar
     5    27    28   ar
     6    28    29   ar
     7    29    30    1
     8    29    31   ar
     9    31    32   ar
    10    23     1    1
    11     1     2    2
    12     1     3   am
    13     3     4    1
    14     4     5    1
    15     5     6    1
    16     6    11    1
    17    11    12   ar
    18    12    13   ar
    19    13    14   ar
    20    14    15   ar
    21    15    16   ar
    22    16    17   ar
    23    17    18   ar
    24    18    19    1
    25    18    20   ar
    26    20    21   ar
    27     6     7    1
    28     7     8    1
    29     7     9    1
    30    32    26   ar
    31     9     3    1
    32    21    11   ar
    33    21    15   ar
    34    24    25    1
    35     8    10    1
@<TRIPOS>MOLECULE
*****
 32 35 0 0 0
SMALL
GASTEIGER

@<TRIPOS>ATOM
      1 C          63.3369   90.3498   11.7989 C.2     1  UNL1        0.3031
      2 O          62.4527   90.9275   10.7338 O.2     1  UNL1       -0.2649
      3 N          63.1715   88.9185   12.2160 N.am    1  UNL1       -0.2699
      4 C          62.1220   88.0649   11.5680 C.3     1  UNL1        0.0944
      5 C          61.9566   86.6336   11.9852 C.3     1  UNL1        0.0283
      6 C          62.8408   86.0559   13.0503 C.3     1  UNL1        0.0527
      7 C          63.8903   86.9094   13.6983 C.3     1  UNL1        0.1343
      8 O          64.7745   86.3317   14.7634 O.3     1  UNL1       -0.3824
      9 C          64.0557   88.3408   13.2812 C.3     1  UNL1        0.1233
     10 H          65.3927   87.0114   15.0743 H       1  UNL1        0.2104
     11 C          62.6754   84.6245   13.4674 C.ar    1  UNL1       -0.0170
     12 C          62.2161   84.2966   14.8572 C.ar    1  UNL1        0.0165
     13 C          62.0507   82.8653   15.2742 C.ar    1  UNL1        0.0985
     14 N          62.3446   81.7619   14.3015 N.ar    1  UNL1       -0.2439
     15 C          62.8039   82.0898   12.9117 C.ar    1  UNL1        0.0811
     16 C          63.0977   80.9864   11.9390 C.ar    1  UNL1        0.0214
     17 C          63.5570   81.3143   10.5493 C.ar    1  UNL1        0.0312
     18 C          63.7224   82.7457   10.1321 C.ar    1  UNL1        0.1402
     19 F          64.1816   83.0736    8.7424 F       1  UNL1       -0.2042
     20 C          63.4285   83.8491   11.1049 C.ar    1  UNL1        0.0308
     21 C          62.9692   83.5211   12.4947 C.ar    1  UNL1        0.0160
     22 O          64.7251   92.5448   11.8675 O.2     1  UNL1       -0.2648
     23 C          64.3864   91.2033   12.4469 C.2     1  UNL1        0.3034
     24 N          65.0974   90.7154   13.6743 N.am    1  UNL1       -0.2766
     25 H          64.8751   89.8349   14.0546 H       1  UNL1        0.1553
     26 C          66.1469   91.5689   14.3223 C.ar    1  UNL1        0.0507
     27 C          67.4791   91.7532   13.6580 C.ar    1  UNL1        0.0155
     28 C          68.5286   92.6068   14.3060 C.ar    1  UNL1        0.0127
     29 C          68.2459   93.2761   15.6184 C.ar    1  UNL1        0.0578
     30 CL         69.2955   94.1296   16.2664 Cl      1  UNL1       -0.0822
     31 C          66.9138   93.0917   16.2827 C.ar    1  UNL1        0.0127
     32 C          65.8642   92.2381   15.6346 C.ar    1  UNL1        0.0155
@<TRIPOS>BOND
     1    22    23    2
     2    23    24   am
     3    24    26    1
     4    26    27   ar
     5    27    28   ar
     6    28    29   ar
     7    29    30    1
     8    29    31   ar
     9    31    32   ar
    10    23     1    1
    11     1     2    2
    12     1     3   am
    13     3     4    1
    14     4     5    1
    15     5     6    1
    16     6    11    1
    17    11    12   ar
    18    12    13   ar
    19    13    14   ar
    20    14    15   ar
    21    15    16   ar
    22    16    17   ar
    23    17    18   ar
    24    18    19    1
    25    18    20   ar
    26    20    21   ar
    27     6     7    1
    28     7     8    1
    29     7     9    1
    30    32    26   ar
    31     9     3    1
    32    21    11   ar
    33    21    15   ar
    34    24    25    1
    35     8    10    1
@<TRIPOS>MOLECULE
*****
 32 35 0 0 0
SMALL
GASTEIGER

@<TRIPOS>ATOM
      1 C          61.7491   87.3278   10.3808 C.2     1  UNL1        0.3031
      2 O          60.9761   87.7715    9.1743 O.2     1  UNL1       -0.2649
      3 N          62.4753   88.3374   11.2194 N.am    1  UNL1       -0.2699
      4 C          62.4284   89.7909   10.8515 C.3     1  UNL1        0.0944
      5 C          63.1546   90.8005   11.6901 C.3     1  UNL1        0.0283
      6 C          63.9276   90.3568   12.8966 C.3     1  UNL1        0.0527
      7 C          63.9745   88.9034   13.2644 C.3     1  UNL1        0.1343
      8 O          64.7475   88.4596   14.4709 O.3     1  UNL1       -0.3824
      9 C          63.2483   87.8936   12.4258 C.3     1  UNL1        0.1233
     10 H          64.6750   87.4970   14.5652 H       1  UNL1        0.2104
     11 C          64.6538   91.3665   13.7352 C.ar    1  UNL1       -0.0170
     12 C          64.6818   91.2209   15.2278 C.ar    1  UNL1        0.0165
     13 C          65.4079   92.2306   16.0663 C.ar    1  UNL1        0.0985
     14 N          66.1060   93.3860   15.4122 N.ar    1  UNL1       -0.2439
     15 C          66.0780   93.5316   13.9196 C.ar    1  UNL1        0.0811
     16 C          66.7761   94.6869   13.2655 C.ar    1  UNL1        0.0214
     17 C          66.7480   94.8326   11.7729 C.ar    1  UNL1        0.0312
     18 C          66.0219   93.8228   10.9342 C.ar    1  UNL1        0.1402
     19 F          65.9938   93.9685    9.4416 F       1  UNL1       -0.2042
     20 C          65.3238   92.6675   11.5883 C.ar    1  UNL1        0.0308
     21 C          65.3518   92.5219   13.0811 C.ar    1  UNL1        0.0160
     22 O          61.1494   84.8543    9.8590 O.2     1  UNL1       -0.2648
     23 C          61.7960   85.8743   10.7486 C.2     1  UNL1        0.3034
     24 N          62.4895   85.4409   12.0062 N.am    1  UNL1       -0.2766
     25 H          62.9138   86.1104   12.5901 H       1  UNL1        0.1553
     26 C          62.5364   83.9875   12.3740 C.ar    1  UNL1        0.0507
     27 C          63.0078   82.9752   11.3726 C.ar    1  UNL1        0.0155
     28 C          63.0547   81.5218   11.7404 C.ar    1  UNL1        0.0127
     29 C          62.6301   81.0807   13.1098 C.ar    1  UNL1        0.0578
     30 CL         62.6770   79.6273   13.4777 Cl      1  UNL1       -0.0822
     31 C          62.1587   82.0930   14.1113 C.ar    1  UNL1        0.0127
     32 C          62.1118   83.5465   13.7434 C.ar    1  UNL1        0.0155
@<TRIPOS>BOND
     1    22    23    2
     2    23    24   am
     3    24    26    1
     4    26    27   ar
     5    27    28   ar
     6    28    29   ar
     7    29    30    1
     8    29    31   ar
     9    31    32   ar
    10    23     1    1
    11     1     2    2
    12     1     3   am
    13     3     4    1
    14     4     5    1
    15     5     6    1
    16     6    11    1
    17    11    12   ar
    18    12    13   ar
    19    13    14   ar
    20    14    15   ar
    21    15    16   ar
    22    16    17   ar
    23    17    18   ar
    24    18    19    1
    25    18    20   ar
    26    20    21   ar
    27     6     7    1
    28     7     8    1
    29     7     9    1
    30    32    26   ar
    31     9     3    1
    32    21    11   ar
    33    21    15   ar
    34    24    25    1
    35     8    10    1
@<TRIPOS>MOLECULE
*****
 32 35 0 0 0
SMALL
GASTEIGER

@<TRIPOS>ATOM
      1 C          60.3335   94.4761    0.5283 C.2     1  UNL1        0.3031
      2 O          61.5549   95.3468    0.5159 O.2     1  UNL1       -0.2649
      3 N          59.2160   94.7380   -0.4372 N.am    1  UNL1       -0.2699
      4 C          59.3197   95.8706   -1.4153 C.3     1  UNL1        0.0944
      5 C          58.2022   96.1325   -2.3808 C.3     1  UNL1        0.0283
      6 C          56.9808   95.2619   -2.3684 C.3     1  UNL1        0.0527
      7 C          56.8769   94.1294   -1.3904 C.3     1  UNL1        0.1343
      8 O          55.6555   93.2587   -1.3780 O.3     1  UNL1       -0.3824
      9 C          57.9946   93.8674   -0.4248 C.3     1  UNL1        0.1233
     10 H          55.7491   92.5802   -0.6912 H       1  UNL1        0.2104
     11 C          55.8631   95.5239   -3.3341 C.ar    1  UNL1       -0.0170
     12 C          54.6542   96.2934   -2.8912 C.ar    1  UNL1        0.0165
     13 C          53.5367   96.5554   -3.8568 C.ar    1  UNL1        0.0985
     14 N          53.6281   96.0477   -5.2653 N.ar    1  UNL1       -0.2439
     15 C          54.8370   95.2782   -5.7082 C.ar    1  UNL1        0.0811
     16 C          54.9284   94.7705   -7.1167 C.ar    1  UNL1        0.0214
     17 C          56.1373   94.0010   -7.5597 C.ar    1  UNL1        0.0312
     18 C          57.2549   93.7390   -6.5940 C.ar    1  UNL1        0.1402
     19 F          58.4639   92.9694   -7.0369 F       1  UNL1       -0.2042
     20 C          57.1635   94.2466   -5.1855 C.ar    1  UNL1        0.0308
     21 C          55.9545   95.0162   -4.7426 C.ar    1  UNL1        0.0160
     22 O          60.6354   91.9589    1.0962 O.2     1  UNL1       -0.2648
     23 C          60.2297   93.3436    1.5063 C.2     1  UNL1        0.3034
     24 N          59.7202   93.5956    2.8945 N.am    1  UNL1       -0.2766
     25 H          59.4539   94.5044    3.1637 H       1  UNL1        0.1553
     26 C          59.6164   92.4631    3.8725 C.ar    1  UNL1        0.0507
     27 C          60.8545   91.7480    4.3261 C.ar    1  UNL1        0.0155
     28 C          60.7506   90.6154    5.3041 C.ar    1  UNL1        0.0127
     29 C          59.4087   90.1979    5.8285 C.ar    1  UNL1        0.0578
     30 CL         59.3049   89.0653    6.8065 Cl      1  UNL1       -0.0822
     31 C          58.1706   90.9130    5.3748 C.ar    1  UNL1        0.0127
     32 C          58.2745   92.0456    4.3968 C.ar    1  UNL1        0.0155
@<TRIPOS>BOND
     1    22    23    2
     2    23    24   am
     3    24    26    1
     4    26    27   ar
     5    27    28   ar
     6    28    29   ar
     7    29    30    1
     8    29    31   ar
     9    31    32   ar
    10    23     1    1
    11     1     2    2
    12     1     3   am
    13     3     4    1
    14     4     5    1
    15     5     6    1
    16     6    11    1
    17    11    12   ar
    18    12    13   ar
    19    13    14   ar
    20    14    15   ar
    21    15    16   ar
    22    16    17   ar
    23    17    18   ar
    24    18    19    1
    25    18    20   ar
    26    20    21   ar
    27     6     7    1
    28     7     8    1
    29     7     9    1
    30    32    26   ar
    31     9     3    1
    32    21    11   ar
    33    21    15   ar
    34    24    25    1
    35     8    10    1
@<TRIPOS>MOLECULE
*****
 32 35 0 0 0
SMALL
GASTEIGER

@<TRIPOS>ATOM
      1 C          60.7751   94.4459    0.7440 C.2     1  UNL1        0.3031
      2 O          61.8345   95.4909    0.9331 O.2     1  UNL1       -0.2649
      3 N          59.8559   94.5153   -0.4392 N.am    1  UNL1       -0.2699
      4 C          59.9959   95.6297   -1.4334 C.3     1  UNL1        0.0944
      5 C          59.0766   95.6991   -2.6166 C.3     1  UNL1        0.0283
      6 C          58.0173   94.6541   -2.8057 C.3     1  UNL1        0.0527
      7 C          57.8772   93.5397   -1.8115 C.3     1  UNL1        0.1343
      8 O          56.8179   92.4947   -2.0006 O.3     1  UNL1       -0.3824
      9 C          58.7965   93.4703   -0.6282 C.3     1  UNL1        0.1233
     10 H          56.8638   91.8527   -1.2749 H       1  UNL1        0.2104
     11 C          57.0980   94.7236   -3.9890 C.ar    1  UNL1       -0.0170
     12 C          57.5584   94.2252   -5.3267 C.ar    1  UNL1        0.0165
     13 C          56.6391   94.2947   -6.5099 C.ar    1  UNL1        0.0985
     14 N          55.2594   94.8625   -6.3554 N.ar    1  UNL1       -0.2439
     15 C          54.7989   95.3609   -5.0177 C.ar    1  UNL1        0.0811
     16 C          53.4192   95.9287   -4.8631 C.ar    1  UNL1        0.0214
     17 C          52.9587   96.4270   -3.5254 C.ar    1  UNL1        0.0312
     18 C          53.8780   96.3576   -2.3421 C.ar    1  UNL1        0.1402
     19 F          53.4176   96.8559   -1.0044 F       1  UNL1       -0.2042
     20 C          55.2578   95.7898   -2.4966 C.ar    1  UNL1        0.0308
     21 C          55.7182   95.2914   -3.8345 C.ar    1  UNL1        0.0160
     22 O          61.3842   92.0477    1.5363 O.2     1  UNL1       -0.2648
     23 C          60.6351   93.3315    1.7382 C.2     1  UNL1        0.3034
     24 N          59.7459   93.5008    2.9343 N.am    1  UNL1       -0.2766
     25 H          59.2542   94.3433    3.0669 H       1  UNL1        0.1553
     26 C          59.6058   92.3863    3.9285 C.ar    1  UNL1        0.0507
     27 C          58.2455   91.9790    4.4119 C.ar    1  UNL1        0.0155
     28 C          58.1055   90.8646    5.4060 C.ar    1  UNL1        0.0127
     29 C          59.3258   90.1574    5.9169 C.ar    1  UNL1        0.0578
     30 CL         59.1857   89.0430    6.9110 Cl      1  UNL1       -0.0822
     31 C          60.6861   90.5648    5.4335 C.ar    1  UNL1        0.0127
     32 C          60.8261   91.6793    4.4393 C.ar    1  UNL1        0.0155
@<TRIPOS>BOND
     1    22    23    2
     2    23    24   am
     3    24    26    1
     4    26    27   ar
     5    27    28   ar
     6    28    29   ar
     7    29    30    1
     8    29    31   ar
     9    31    32   ar
    10    23     1    1
    11     1     2    2
    12     1     3   am
    13     3     4    1
    14     4     5    1
    15     5     6    1
    16     6    11    1
    17    11    12   ar
    18    12    13   ar
    19    13    14   ar
    20    14    15   ar
    21    15    16   ar
    22    16    17   ar
    23    17    18   ar
    24    18    19    1
    25    18    20   ar
    26    20    21   ar
    27     6     7    1
    28     7     8    1
    29     7     9    1
    30    32    26   ar
    31     9     3    1
    32    21    11   ar
    33    21    15   ar
    34    24    25    1
    35     8    10    1
@<TRIPOS>MOLECULE
*****
 32 35 0 0 0
SMALL
GASTEIGER

@<TRIPOS>ATOM
      1 C          59.2557   88.6391    7.5210 C.2     1  UNL1        0.3031
      2 O          58.2870   87.4979    7.4244 O.2     1  UNL1       -0.2649
      3 N          60.1604   88.7562    8.7117 N.am    1  UNL1       -0.2699
      4 C          60.0965   87.7320    9.8058 C.3     1  UNL1        0.0944
      5 C          61.0013   87.8491   10.9965 C.3     1  UNL1        0.0283
      6 C          61.9699   88.9903   11.0931 C.3     1  UNL1        0.0527
      7 C          62.0339   90.0144    9.9990 C.3     1  UNL1        0.1343
      8 O          63.0025   91.1556   10.0956 O.3     1  UNL1       -0.3824
      9 C          61.1291   89.8974    8.8083 C.3     1  UNL1        0.1233
     10 H          62.9154   91.7209    9.3122 H       1  UNL1        0.2104
     11 C          62.8747   89.1073   12.2838 C.ar    1  UNL1       -0.0170
     12 C          63.2795   90.4607   12.7880 C.ar    1  UNL1        0.0165
     13 C          64.1842   90.5777   13.9787 C.ar    1  UNL1        0.0985
     14 N          64.6841   89.3412   14.6652 N.ar    1  UNL1       -0.2439
     15 C          64.2793   87.9878   14.1610 C.ar    1  UNL1        0.0811
     16 C          64.7792   86.7513   14.8474 C.ar    1  UNL1        0.0214
     17 C          64.3744   85.3979   14.3432 C.ar    1  UNL1        0.0312
     18 C          63.4697   85.2809   13.1525 C.ar    1  UNL1        0.1402
     19 F          63.0649   83.9274   12.6482 F       1  UNL1       -0.2042
     20 C          62.9698   86.5173   12.4660 C.ar    1  UNL1        0.0308
     21 C          63.3746   87.8708   12.9703 C.ar    1  UNL1        0.0160
     22 O          58.0563   90.2719    5.8946 O.2     1  UNL1       -0.2648
     23 C          59.3196   89.6633    6.4270 C.2     1  UNL1        0.3034
     24 N          60.6470   90.0789    5.8653 N.am    1  UNL1       -0.2766
     25 H          61.4762   89.6794    6.2147 H       1  UNL1        0.1553
     26 C          60.7109   91.1030    4.7712 C.ar    1  UNL1        0.0507
     27 C          61.9384   91.2112    3.9159 C.ar    1  UNL1        0.0155
     28 C          62.0024   92.2353    2.8219 C.ar    1  UNL1        0.0127
     29 C          60.8388   93.1514    2.5831 C.ar    1  UNL1        0.0578
     30 CL         60.9027   94.1755    1.4890 Cl      1  UNL1       -0.0822
     31 C          59.6113   93.0432    3.4384 C.ar    1  UNL1        0.0127
     32 C          59.5474   92.0190    4.5325 C.ar    1  UNL1        0.0155
@<TRIPOS>BOND
     1    22    23    2
     2    23    24   am
     3    24    26    1
     4    26    27   ar
     5    27    28   ar
     6    28    29   ar
     7    29    30    1
     8    29    31   ar
     9    31    32   ar
    10    23     1    1
    11     1     2    2
    12     1     3   am
    13     3     4    1
    14     4     5    1
    15     5     6    1
    16     6    11    1
    17    11    12   ar
    18    12    13   ar
    19    13    14   ar
    20    14    15   ar
    21    15    16   ar
    22    16    17   ar
    23    17    18   ar
    24    18    19    1
    25    18    20   ar
    26    20    21   ar
    27     6     7    1
    28     7     8    1
    29     7     9    1
    30    32    26   ar
    31     9     3    1
    32    21    11   ar
    33    21    15   ar
    34    24    25    1
    35     8    10    1
