@<TRIPOS>MOLECULE
*****
 46 49 0 0 0
SMALL
GASTEIGER

@<TRIPOS>ATOM
      1 N          62.7152   90.3340   11.8451 N.3     1  UNL1       -0.2699
      2 C          63.5011   89.3780   12.6928 C.3     1  UNL1        0.0924
      3 C          63.9242   89.7755   14.0758 C.3     1  UNL1        0.0950
      4 N          64.0952   88.7296   15.1375 N.am    1  UNL1       -0.2706
      5 C          63.0529   88.5657   16.2036 C.2     1  UNL1        0.4020
      6 O          61.8396   89.4476   16.2082 O.2     1  UNL1       -0.2264
      7 H          64.8916   88.1508   15.1345 H       1  UNL1        0.1527
      8 O          63.2240   87.5199   17.2652 O.3     1  UNL1       -0.4274
      9 C          62.7059   86.1304   17.0395 C.3     1  UNL1        0.2621
     10 C          63.3225   85.2625   15.9828 C.ar    1  UNL1        0.1323
     11 N          64.5938   85.5470   15.2394 N.ar    1  UNL1       -0.2374
     12 C          64.8331   84.4180   14.2812 C.ar    1  UNL1        0.1062
     13 C          63.7095   83.4358   14.4324 C.ar    1  UNL1        0.0573
     14 S          62.7759   83.9577   15.4841 S.2     1  UNL1       -0.0666
     15 C          64.1764   91.2188   14.3974 C.3     1  UNL1        0.0474
     16 C          65.5681   91.6867   14.7041 C.ar    1  UNL1       -0.0205
     17 C          66.6754   91.4412   13.7225 C.ar    1  UNL1       -0.0042
     18 C          68.0671   91.9092   14.0293 C.ar    1  UNL1       -0.0003
     19 C          68.3515   92.6227   15.3178 C.ar    1  UNL1       -0.0000
     20 C          67.2442   92.8682   16.2994 C.ar    1  UNL1       -0.0003
     21 C          65.8524   92.4002   15.9925 C.ar    1  UNL1       -0.0042
     22 C          61.2902   90.0263   11.4920 C.3     1  UNL1        0.0924
     23 C          60.9803   88.9475   10.4968 C.3     1  UNL1        0.0950
     24 N          60.8740   89.2807    9.0382 N.am    1  UNL1       -0.2706
     25 C          59.8004   88.6507    8.2012 C.2     1  UNL1        0.4020
     26 O          58.8331   87.6875    8.8229 O.2     1  UNL1       -0.2264
     27 H          61.5089   89.9129    8.6302 H       1  UNL1        0.1527
     28 O          59.6942   88.9840    6.7425 O.3     1  UNL1       -0.4291
     29 C          58.7617   90.0669    6.2866 C.3     1  UNL1        0.2447
     30 C          59.1921   91.0258    5.2164 C.ar    1  UNL1        0.0714
     31 C          58.2949   91.9509    4.4487 C.ar    1  UNL1        0.1053
     32 N          59.1435   92.7247    3.4838 N.ar    1  UNL1       -0.2350
     33 C          60.5652   92.2779    3.6552 C.ar    1  UNL1        0.1343
     34 S          60.5951   91.2279    4.7260 S.2     1  UNL1       -0.0652
     35 C          60.7766   87.5355   10.9604 C.3     1  UNL1        0.0474
     36 C          61.6907   86.4485   10.4778 C.ar    1  UNL1       -0.0205
     37 C          62.1469   86.4315    9.0490 C.ar    1  UNL1       -0.0042
     38 C          63.0610   85.3444    8.5664 C.ar    1  UNL1       -0.0003
     39 C          63.5188   84.2744    9.5127 C.ar    1  UNL1       -0.0000
     40 C          63.0625   84.2914   10.9415 C.ar    1  UNL1       -0.0003
     41 C          62.1485   85.3784   11.4241 C.ar    1  UNL1       -0.0042
     42 C          63.3542   91.5977   11.3506 C.3     1  UNL1        0.0722
     43 C          64.5725   91.5304   10.4779 C.3     1  UNL1        0.0173
     44 C          67.0520   92.2327   10.1483 C.3     1  UNL1        0.0000
     45 C          65.6694   92.5402   10.6422 C.3     1  UNL1        0.0014
     46 C          65.3838   93.8575   11.3004 C.3     1  UNL1        0.0000
@<TRIPOS>BOND
     1    44    45    1
     2    45    46    1
     3    45    43    1
     4    43    42    1
     5    42     1    1
     6     1    22    1
     7    23    22    1
     8    23    35    1
     9    35    36    1
    10    36    37   ar
    11    37    38   ar
    12    38    39   ar
    13    39    40   ar
    14    40    41   ar
    15    23    24    1
    16    24    25   am
    17    25    26    2
    18    25    28    1
    19    28    29    1
    20    29    30    1
    21    30    31   ar
    22    31    32   ar
    23    32    33   ar
    24    33    34   ar
    25     1     2    1
    26     3     2    1
    27     3    15    1
    28    15    16    1
    29    16    17   ar
    30    17    18   ar
    31    18    19   ar
    32    19    20   ar
    33    20    21   ar
    34     3     4    1
    35     4     5   am
    36     5     6    2
    37     5     8    1
    38     8     9    1
    39     9    10    1
    40    10    11   ar
    41    11    12   ar
    42    12    13   ar
    43    13    14   ar
    44    41    36   ar
    45    34    30   ar
    46    21    16   ar
    47    14    10   ar
    48    24    27    1
    49     4     7    1
@<TRIPOS>MOLECULE
*****
 46 49 0 0 0
SMALL
GASTEIGER

@<TRIPOS>ATOM
      1 N          62.7022   85.9471   12.1719 N.3     1  UNL1       -0.2699
      2 C          62.3301   85.2045   13.4209 C.3     1  UNL1        0.0924
      3 C          63.3100   85.1005   14.5517 C.3     1  UNL1        0.0950
      4 N          63.6796   86.3229   15.3388 N.am    1  UNL1       -0.2706
      5 C          62.8369   86.7472   16.5049 C.2     1  UNL1        0.4020
      6 O          61.6246   85.9493   16.8839 O.2     1  UNL1       -0.2264
      7 H          64.4752   86.8466   15.0900 H       1  UNL1        0.1527
      8 O          63.2064   87.9695   17.2919 O.3     1  UNL1       -0.4274
      9 C          62.7719   89.3254   16.8196 C.3     1  UNL1        0.2621
     10 C          63.7393   90.2123   16.0935 C.ar    1  UNL1        0.1323
     11 N          64.0208   91.6522   16.4059 N.ar    1  UNL1       -0.2374
     12 C          65.0506   92.1449   15.4330 C.ar    1  UNL1        0.1062
     13 C          65.4057   91.0095   14.5193 C.ar    1  UNL1        0.0573
     14 S          64.5953   89.8151   14.9276 S.2     1  UNL1       -0.0666
     15 C          63.9205   83.7742   14.8956 C.3     1  UNL1        0.0474
     16 C          63.2458   82.5046   14.4681 C.ar    1  UNL1       -0.0205
     17 C          64.0672   81.3365   14.0092 C.ar    1  UNL1       -0.0042
     18 C          63.3925   80.0668   13.5818 C.ar    1  UNL1       -0.0003
     19 C          61.8962   79.9653   13.6132 C.ar    1  UNL1       -0.0000
     20 C          61.0748   81.1335   14.0721 C.ar    1  UNL1       -0.0003
     21 C          61.7496   82.4032   14.4996 C.ar    1  UNL1       -0.0042
     22 C          63.0670   87.4002   12.2438 C.3     1  UNL1        0.0924
     23 C          62.3996   88.3871   11.3322 C.3     1  UNL1        0.0950
     24 N          63.2129   89.4464   10.6494 N.am    1  UNL1       -0.2706
     25 C          63.2899   90.8258   11.2335 C.2     1  UNL1        0.4020
     26 O          62.5537   91.1459   12.5005 O.2     1  UNL1       -0.2264
     27 H          63.6962   89.2363    9.8178 H       1  UNL1        0.1527
     28 O          64.1033   91.8851   10.5506 O.3     1  UNL1       -0.4291
     29 C          65.2655   92.5130   11.2613 C.3     1  UNL1        0.2447
     30 C          66.4291   93.0406   10.4754 C.ar    1  UNL1        0.0714
     31 C          67.7229   92.3235   10.2268 C.ar    1  UNL1        0.1053
     32 N          68.5966   93.2176    9.3979 N.ar    1  UNL1       -0.2350
     33 C          67.8428   94.4874    9.1343 C.ar    1  UNL1        0.1343
     34 S          66.5032   94.3780    9.8002 S.2     1  UNL1       -0.0652
     35 C          60.9189   88.3145   11.1036 C.3     1  UNL1        0.0474
     36 C          60.3837   88.0912    9.7203 C.ar    1  UNL1       -0.0205
     37 C          60.1129   89.2621    8.8228 C.ar    1  UNL1       -0.0042
     38 C          59.5776   89.0388    7.4394 C.ar    1  UNL1       -0.0003
     39 C          59.3131   87.6445    6.9536 C.ar    1  UNL1       -0.0000
     40 C          59.5840   86.4735    7.8511 C.ar    1  UNL1       -0.0003
     41 C          60.1192   86.6969    9.2344 C.ar    1  UNL1       -0.0042
     42 C          62.7095   85.2365   10.8509 C.3     1  UNL1        0.0722
     43 C          62.3939   83.7714   10.7856 C.3     1  UNL1        0.0173
     44 C          63.2280   81.3523   10.3366 C.3     1  UNL1        0.0000
     45 C          63.5060   82.7653   10.7563 C.3     1  UNL1        0.0014
     46 C          64.8960   83.1721   11.1467 C.3     1  UNL1        0.0000
@<TRIPOS>BOND
     1    44    45    1
     2    45    46    1
     3    45    43    1
     4    43    42    1
     5    42     1    1
     6     1    22    1
     7    23    22    1
     8    23    35    1
     9    35    36    1
    10    36    37   ar
    11    37    38   ar
    12    38    39   ar
    13    39    40   ar
    14    40    41   ar
    15    23    24    1
    16    24    25   am
    17    25    26    2
    18    25    28    1
    19    28    29    1
    20    29    30    1
    21    30    31   ar
    22    31    32   ar
    23    32    33   ar
    24    33    34   ar
    25     1     2    1
    26     3     2    1
    27     3    15    1
    28    15    16    1
    29    16    17   ar
    30    17    18   ar
    31    18    19   ar
    32    19    20   ar
    33    20    21   ar
    34     3     4    1
    35     4     5   am
    36     5     6    2
    37     5     8    1
    38     8     9    1
    39     9    10    1
    40    10    11   ar
    41    11    12   ar
    42    12    13   ar
    43    13    14   ar
    44    41    36   ar
    45    34    30   ar
    46    21    16   ar
    47    14    10   ar
    48    24    27    1
    49     4     7    1
@<TRIPOS>MOLECULE
*****
 46 49 0 0 0
SMALL
GASTEIGER

@<TRIPOS>ATOM
      1 N          62.3247   89.4163   11.7072 N.3     1  UNL1       -0.2699
      2 C          62.4408   90.0799   13.0474 C.3     1  UNL1        0.0924
      3 C          63.7906   90.4499   13.5868 C.3     1  UNL1        0.0950
      4 N          64.7897   91.1351   12.7022 N.am    1  UNL1       -0.2706
      5 C          65.6406   92.2426   13.2492 C.2     1  UNL1        0.4020
      6 O          65.4924   92.6651   14.6808 O.2     1  UNL1       -0.2264
      7 H          64.8870   90.8578   11.7626 H       1  UNL1        0.1527
      8 O          66.6396   92.9277   12.3646 O.3     1  UNL1       -0.4274
      9 C          66.3903   93.0278   10.8888 C.3     1  UNL1        0.2621
     10 C          66.7028   94.3011   10.1600 C.ar    1  UNL1        0.1323
     11 N          66.2768   95.6794   10.5708 N.ar    1  UNL1       -0.2374
     12 C          66.8068   96.6498    9.5572 C.ar    1  UNL1        0.1062
     13 C          67.5604   95.8711    8.5200 C.ar    1  UNL1        0.0573
     14 S          67.4961   94.4196    8.8925 S.2     1  UNL1       -0.0666
     15 C          64.1415   90.1348   15.0107 C.3     1  UNL1        0.0474
     16 C          63.8877   88.7621   15.5596 C.ar    1  UNL1       -0.0205
     17 C          64.4279   87.5578   14.8470 C.ar    1  UNL1       -0.0042
     18 C          64.1742   86.1851   15.3958 C.ar    1  UNL1       -0.0003
     19 C          63.3802   86.0167   16.6573 C.ar    1  UNL1       -0.0000
     20 C          62.8400   87.2210   17.3699 C.ar    1  UNL1       -0.0003
     21 C          63.0938   88.5937   16.8210 C.ar    1  UNL1       -0.0042
     22 C          62.7751   87.9964   11.5319 C.3     1  UNL1        0.0924
     23 C          61.7616   86.9036   11.3618 C.3     1  UNL1        0.0950
     24 N          61.6276   85.8357   12.4066 N.am    1  UNL1       -0.2706
     25 C          62.6821   84.7768   12.5363 C.2     1  UNL1        0.4020
     26 O          63.8706   84.7858   11.6212 O.2     1  UNL1       -0.2264
     27 H          60.8476   85.8298   13.0072 H       1  UNL1        0.1527
     28 O          62.5481   83.7089   13.5811 O.3     1  UNL1       -0.4291
     29 C          63.4232   82.4918   13.5262 C.3     1  UNL1        0.2447
     30 C          63.1922   81.4489   12.4732 C.ar    1  UNL1        0.0714
     31 C          62.6674   80.0629   12.7052 C.ar    1  UNL1        0.1053
     32 N          62.5963   79.3661   11.3788 N.ar    1  UNL1       -0.2350
     33 C          63.0771   80.3215   10.3270 C.ar    1  UNL1        0.1343
     34 S          63.4453   81.6087   11.0034 S.2     1  UNL1       -0.0652
     35 C          60.8822   86.8788   10.1469 C.3     1  UNL1        0.0474
     36 C          61.3157   86.1287    8.9225 C.ar    1  UNL1       -0.0205
     37 C          62.7059   85.5721    8.8368 C.ar    1  UNL1       -0.0042
     38 C          63.1394   84.8220    7.6122 C.ar    1  UNL1       -0.0003
     39 C          62.1825   84.6284    6.4734 C.ar    1  UNL1       -0.0000
     40 C          60.7922   85.1849    6.5591 C.ar    1  UNL1       -0.0003
     41 C          60.3588   85.9351    7.7836 C.ar    1  UNL1       -0.0042
     42 C          61.7583   90.1727   10.5423 C.3     1  UNL1        0.0722
     43 C          60.2819   90.1478   10.2783 C.3     1  UNL1        0.0173
     44 C          58.6611   91.6367   11.6589 C.3     1  UNL1        0.0000
     45 C          59.3142   90.3090   11.4131 C.3     1  UNL1        0.0014
     46 C          58.9997   89.1424   12.3020 C.3     1  UNL1        0.0000
@<TRIPOS>BOND
     1    44    45    1
     2    45    46    1
     3    45    43    1
     4    43    42    1
     5    42     1    1
     6     1    22    1
     7    23    22    1
     8    23    35    1
     9    35    36    1
    10    36    37   ar
    11    37    38   ar
    12    38    39   ar
    13    39    40   ar
    14    40    41   ar
    15    23    24    1
    16    24    25   am
    17    25    26    2
    18    25    28    1
    19    28    29    1
    20    29    30    1
    21    30    31   ar
    22    31    32   ar
    23    32    33   ar
    24    33    34   ar
    25     1     2    1
    26     3     2    1
    27     3    15    1
    28    15    16    1
    29    16    17   ar
    30    17    18   ar
    31    18    19   ar
    32    19    20   ar
    33    20    21   ar
    34     3     4    1
    35     4     5   am
    36     5     6    2
    37     5     8    1
    38     8     9    1
    39     9    10    1
    40    10    11   ar
    41    11    12   ar
    42    12    13   ar
    43    13    14   ar
    44    41    36   ar
    45    34    30   ar
    46    21    16   ar
    47    14    10   ar
    48    24    27    1
    49     4     7    1
@<TRIPOS>MOLECULE
*****
 46 49 0 0 0
SMALL
GASTEIGER

@<TRIPOS>ATOM
      1 N          62.6136   86.7048   12.1936 N.3     1  UNL1       -0.2699
      2 C          62.9081   87.7734   11.1829 C.3     1  UNL1        0.0924
      3 C          62.3304   89.1471   11.3538 C.3     1  UNL1        0.0950
      4 N          63.1979   90.2706   11.8388 N.am    1  UNL1       -0.2706
      5 C          63.5969   91.3695   10.8991 C.2     1  UNL1        0.4020
      6 O          63.1284   91.3450    9.4744 O.2     1  UNL1       -0.2264
      7 H          63.5054   90.2867   12.7739 H       1  UNL1        0.1527
      8 O          64.4644   92.4929   11.3842 O.3     1  UNL1       -0.4274
      9 C          65.8908   92.5891   10.9298 C.3     1  UNL1        0.2621
     10 C          66.4097   93.8736   10.3546 C.ar    1  UNL1        0.1323
     11 N          67.3088   94.0055    9.1612 N.ar    1  UNL1       -0.2374
     12 C          67.5754   95.4651    8.9408 C.ar    1  UNL1        0.1062
     13 C          66.8410   96.2352    9.9981 C.ar    1  UNL1        0.0573
     14 S          66.1206   95.2516   10.8718 S.2     1  UNL1       -0.0666
     15 C          60.8852   89.3973   11.0397 C.3     1  UNL1        0.0474
     16 C          60.2849   88.8458    9.7805 C.ar    1  UNL1       -0.0205
     17 C          59.7772   87.4348    9.7471 C.ar    1  UNL1       -0.0042
     18 C          59.1770   86.8833    8.4880 C.ar    1  UNL1       -0.0003
     19 C          59.0844   87.7429    7.2621 C.ar    1  UNL1       -0.0000
     20 C          59.5921   89.1540    7.2955 C.ar    1  UNL1       -0.0003
     21 C          60.1924   89.7054    8.5548 C.ar    1  UNL1       -0.0042
     22 C          62.6448   87.0284   13.6579 C.3     1  UNL1        0.0924
     23 C          63.9587   87.1531   14.3707 C.3     1  UNL1        0.0950
     24 N          64.6063   88.4979   14.5200 N.am    1  UNL1       -0.2706
     25 C          63.9284   89.5722   15.3177 C.2     1  UNL1        0.4020
     26 O          62.6031   89.3019   15.9660 O.2     1  UNL1       -0.2264
     27 H          65.4762   88.6753   14.0946 H       1  UNL1        0.1527
     28 O          64.5760   90.9170   15.4671 O.3     1  UNL1       -0.4291
     29 C          65.4695   91.4437   14.3834 C.3     1  UNL1        0.2447
     30 C          66.7955   92.0511   14.7337 C.ar    1  UNL1        0.0714
     31 C          68.0345   92.0106   13.8891 C.ar    1  UNL1        0.1053
     32 N          69.1201   92.7400   14.6235 N.ar    1  UNL1       -0.2350
     33 C          68.5520   93.2313   15.9220 C.ar    1  UNL1        0.1343
     34 S          67.1154   92.8055   15.9900 S.2     1  UNL1       -0.0652
     35 C          64.6252   85.9331   14.9340 C.3     1  UNL1        0.0474
     36 C          64.1360   84.5675   14.5521 C.ar    1  UNL1       -0.0205
     37 C          62.9375   83.9812   15.2377 C.ar    1  UNL1       -0.0042
     38 C          62.4484   82.6156   14.8558 C.ar    1  UNL1       -0.0003
     39 C          63.1576   81.8362   13.7884 C.ar    1  UNL1       -0.0000
     40 C          64.3561   82.4225   13.1028 C.ar    1  UNL1       -0.0003
     41 C          64.8453   83.7881   13.4846 C.ar    1  UNL1       -0.0042
     42 C          62.2879   85.3127   11.7399 C.3     1  UNL1        0.0722
     43 C          61.9327   85.0552   10.3055 C.3     1  UNL1        0.0173
     44 C          63.0502   85.1998    7.9646 C.3     1  UNL1        0.0000
     45 C          62.9891   84.6053    9.3403 C.3     1  UNL1        0.0014
     46 C          63.9844   83.5610    9.7510 C.3     1  UNL1        0.0000
@<TRIPOS>BOND
     1    44    45    1
     2    45    46    1
     3    45    43    1
     4    43    42    1
     5    42     1    1
     6     1    22    1
     7    23    22    1
     8    23    35    1
     9    35    36    1
    10    36    37   ar
    11    37    38   ar
    12    38    39   ar
    13    39    40   ar
    14    40    41   ar
    15    23    24    1
    16    24    25   am
    17    25    26    2
    18    25    28    1
    19    28    29    1
    20    29    30    1
    21    30    31   ar
    22    31    32   ar
    23    32    33   ar
    24    33    34   ar
    25     1     2    1
    26     3     2    1
    27     3    15    1
    28    15    16    1
    29    16    17   ar
    30    17    18   ar
    31    18    19   ar
    32    19    20   ar
    33    20    21   ar
    34     3     4    1
    35     4     5   am
    36     5     6    2
    37     5     8    1
    38     8     9    1
    39     9    10    1
    40    10    11   ar
    41    11    12   ar
    42    12    13   ar
    43    13    14   ar
    44    41    36   ar
    45    34    30   ar
    46    21    16   ar
    47    14    10   ar
    48    24    27    1
    49     4     7    1
@<TRIPOS>MOLECULE
*****
 46 49 0 0 0
SMALL
GASTEIGER

@<TRIPOS>ATOM
      1 N          63.4788   88.4181   13.0607 N.3     1  UNL1       -0.2699
      2 C          63.2443   89.7960   13.6051 C.3     1  UNL1        0.0924
      3 C          64.3863   90.7620   13.7185 C.3     1  UNL1        0.0950
      4 N          64.9693   91.3824   12.4835 N.am    1  UNL1       -0.2706
      5 C          64.0828   91.7105   11.3188 C.2     1  UNL1        0.4020
      6 O          62.6133   91.4180   11.3891 O.2     1  UNL1       -0.2264
      7 H          65.9338   91.5744   12.4374 H       1  UNL1        0.1527
      8 O          64.6658   92.3309   10.0839 O.3     1  UNL1       -0.4274
      9 C          66.0978   92.7775   10.0733 C.3     1  UNL1        0.2621
     10 C          66.4272   94.2391   10.0018 C.ar    1  UNL1        0.1323
     11 N          67.0567   94.9451    8.8376 N.ar    1  UNL1       -0.2374
     12 C          67.2034   96.3937    9.1981 C.ar    1  UNL1        0.1062
     13 C          66.6645   96.5830   10.5852 C.ar    1  UNL1        0.0573
     14 S          66.1848   95.2514   11.0818 S.2     1  UNL1       -0.0666
     15 C          64.9452   91.1075   15.0669 C.3     1  UNL1        0.0474
     16 C          66.2970   91.7483   15.1767 C.ar    1  UNL1       -0.0205
     17 C          67.3815   91.3821   14.2073 C.ar    1  UNL1       -0.0042
     18 C          68.7333   92.0229   14.3171 C.ar    1  UNL1       -0.0003
     19 C          69.0005   93.0299   15.3962 C.ar    1  UNL1       -0.0000
     20 C          67.9160   93.3961   16.3656 C.ar    1  UNL1       -0.0003
     21 C          66.5642   92.7553   16.2558 C.ar    1  UNL1       -0.0042
     22 C          63.0643   88.0852   11.6581 C.3     1  UNL1        0.0924
     23 C          62.1454   86.9275   11.4023 C.3     1  UNL1        0.0950
     24 N          62.6852   85.5280   11.3997 N.am    1  UNL1       -0.2706
     25 C          63.0893   84.8824   10.1075 C.2     1  UNL1        0.4020
     26 O          62.9536   85.6362    8.8178 O.2     1  UNL1       -0.2264
     27 H          62.7742   85.0331   12.2461 H       1  UNL1        0.1527
     28 O          63.6291   83.4828   10.1049 O.3     1  UNL1       -0.4291
     29 C          64.4020   82.9749   11.2858 C.3     1  UNL1        0.2447
     30 C          63.7081   82.1766   12.3494 C.ar    1  UNL1        0.0714
     31 C          64.3555   81.5658   13.5568 C.ar    1  UNL1        0.1053
     32 N          63.2924   80.8606   14.3459 N.ar    1  UNL1       -0.2350
     33 C          61.9880   81.0357   13.6261 C.ar    1  UNL1        0.1343
     34 S          62.2450   81.8490   12.3922 S.2     1  UNL1       -0.0652
     35 C          60.6869   87.1693   11.1491 C.3     1  UNL1        0.0474
     36 C          60.2273   87.6369    9.8001 C.ar    1  UNL1       -0.0205
     37 C          59.6529   86.6557    8.8217 C.ar    1  UNL1       -0.0042
     38 C          59.1933   87.1235    7.4725 C.ar    1  UNL1       -0.0003
     39 C          59.3080   88.5724    7.1019 C.ar    1  UNL1       -0.0000
     40 C          59.8824   89.5536    8.0803 C.ar    1  UNL1       -0.0003
     41 C          60.3420   89.0859    9.4294 C.ar    1  UNL1       -0.0042
     42 C          64.1278   87.3730   13.9189 C.3     1  UNL1        0.0722
     43 C          63.9899   87.4365   15.4113 C.3     1  UNL1        0.0173
     44 C          63.7599   84.8565   15.6131 C.3     1  UNL1        0.0000
     45 C          63.5322   86.2288   16.1742 C.3     1  UNL1        0.0014
     46 C          62.8466   86.3935   17.4982 C.3     1  UNL1        0.0000
@<TRIPOS>BOND
     1    44    45    1
     2    45    46    1
     3    45    43    1
     4    43    42    1
     5    42     1    1
     6     1    22    1
     7    23    22    1
     8    23    35    1
     9    35    36    1
    10    36    37   ar
    11    37    38   ar
    12    38    39   ar
    13    39    40   ar
    14    40    41   ar
    15    23    24    1
    16    24    25   am
    17    25    26    2
    18    25    28    1
    19    28    29    1
    20    29    30    1
    21    30    31   ar
    22    31    32   ar
    23    32    33   ar
    24    33    34   ar
    25     1     2    1
    26     3     2    1
    27     3    15    1
    28    15    16    1
    29    16    17   ar
    30    17    18   ar
    31    18    19   ar
    32    19    20   ar
    33    20    21   ar
    34     3     4    1
    35     4     5   am
    36     5     6    2
    37     5     8    1
    38     8     9    1
    39     9    10    1
    40    10    11   ar
    41    11    12   ar
    42    12    13   ar
    43    13    14   ar
    44    41    36   ar
    45    34    30   ar
    46    21    16   ar
    47    14    10   ar
    48    24    27    1
    49     4     7    1
@<TRIPOS>MOLECULE
*****
 46 49 0 0 0
SMALL
GASTEIGER

@<TRIPOS>ATOM
      1 N          62.3901   86.9434   10.4914 N.3     1  UNL1       -0.2699
      2 C          62.7262   88.2255   11.1937 C.3     1  UNL1        0.0924
      3 C          62.1177   89.5160   10.7308 C.3     1  UNL1        0.0950
      4 N          61.3120   89.5543    9.4661 N.am    1  UNL1       -0.2706
      5 C          59.9291   88.9740    9.4400 C.2     1  UNL1        0.4020
      6 O          59.3518   88.3554   10.6786 O.2     1  UNL1       -0.2264
      7 H          61.6909   89.9603    8.6532 H       1  UNL1        0.1527
      8 O          59.1235   89.0123    8.1753 O.3     1  UNL1       -0.4274
      9 C          59.7884   89.3441    6.8723 C.3     1  UNL1        0.2621
     10 C          59.1624   90.3419    5.9435 C.ar    1  UNL1        0.1323
     11 N          57.6971   90.6415    5.8290 N.ar    1  UNL1       -0.2374
     12 C          57.5209   91.7000    4.7809 C.ar    1  UNL1        0.1062
     13 C          58.8774   92.0546    4.2477 C.ar    1  UNL1        0.0573
     14 S          59.8919   91.2153    4.9663 S.2     1  UNL1       -0.0666
     15 C          62.3149   90.7683   11.5327 C.3     1  UNL1        0.0474
     16 C          63.6621   91.4263   11.5769 C.ar    1  UNL1       -0.0205
     17 C          64.3903   91.5573   12.8817 C.ar    1  UNL1       -0.0042
     18 C          65.7376   92.2153   12.9259 C.ar    1  UNL1       -0.0003
     19 C          66.3566   92.7423   11.6652 C.ar    1  UNL1       -0.0000
     20 C          65.6284   92.6112   10.3604 C.ar    1  UNL1       -0.0003
     21 C          64.2811   91.9532   10.3163 C.ar    1  UNL1       -0.0042
     22 C          61.7276   85.8276   11.2436 C.3     1  UNL1        0.0924
     23 C          62.5480   84.9114   12.1026 C.3     1  UNL1        0.0950
     24 N          62.8733   85.2986   13.5147 N.am    1  UNL1       -0.2706
     25 C          64.2051   84.9384   14.1033 C.2     1  UNL1        0.4020
     26 O          65.2117   84.1910   13.2798 O.2     1  UNL1       -0.2264
     27 H          62.2127   85.7892   14.0552 H       1  UNL1        0.1527
     28 O          64.5304   85.3257   15.5156 O.3     1  UNL1       -0.4291
     29 C          63.5510   86.1311   16.3169 C.3     1  UNL1        0.2447
     30 C          63.5249   87.6252   16.1872 C.ar    1  UNL1        0.0714
     31 C          62.9662   88.5879   17.1928 C.ar    1  UNL1        0.1053
     32 N          63.1488   89.9766   16.6563 N.ar    1  UNL1       -0.2350
     33 C          63.8204   89.8723   15.3191 C.ar    1  UNL1        0.1343
     34 S          64.0528   88.4190   15.0292 S.2     1  UNL1       -0.0652
     35 C          63.0430   83.6080   11.5493 C.3     1  UNL1        0.0474
     36 C          62.6705   82.3188   12.2197 C.ar    1  UNL1       -0.0205
     37 C          63.0156   81.0101   11.5730 C.ar    1  UNL1       -0.0042
     38 C          62.6431   79.7210   12.2434 C.ar    1  UNL1       -0.0003
     39 C          61.9256   79.7406   13.5605 C.ar    1  UNL1       -0.0000
     40 C          61.5805   81.0493   14.2072 C.ar    1  UNL1       -0.0003
     41 C          61.9529   82.3384   13.5368 C.ar    1  UNL1       -0.0042
     42 C          62.7165   86.7772    9.0368 C.3     1  UNL1        0.0722
     43 C          62.5946   85.4292    8.3901 C.3     1  UNL1        0.0173
     44 C          61.9653   84.4487    6.0680 C.3     1  UNL1        0.0000
     45 C          61.5835   85.2067    7.3047 C.3     1  UNL1        0.0014
     46 C          60.1906   85.7422    7.4561 C.3     1  UNL1        0.0000
@<TRIPOS>BOND
     1    44    45    1
     2    45    46    1
     3    45    43    1
     4    43    42    1
     5    42     1    1
     6     1    22    1
     7    23    22    1
     8    23    35    1
     9    35    36    1
    10    36    37   ar
    11    37    38   ar
    12    38    39   ar
    13    39    40   ar
    14    40    41   ar
    15    23    24    1
    16    24    25   am
    17    25    26    2
    18    25    28    1
    19    28    29    1
    20    29    30    1
    21    30    31   ar
    22    31    32   ar
    23    32    33   ar
    24    33    34   ar
    25     1     2    1
    26     3     2    1
    27     3    15    1
    28    15    16    1
    29    16    17   ar
    30    17    18   ar
    31    18    19   ar
    32    19    20   ar
    33    20    21   ar
    34     3     4    1
    35     4     5   am
    36     5     6    2
    37     5     8    1
    38     8     9    1
    39     9    10    1
    40    10    11   ar
    41    11    12   ar
    42    12    13   ar
    43    13    14   ar
    44    41    36   ar
    45    34    30   ar
    46    21    16   ar
    47    14    10   ar
    48    24    27    1
    49     4     7    1
@<TRIPOS>MOLECULE
*****
 46 49 0 0 0
SMALL
GASTEIGER

@<TRIPOS>ATOM
      1 N          61.9503   89.3642   12.4872 N.3     1  UNL1       -0.2699
      2 C          62.6274   90.1702   13.5559 C.3     1  UNL1        0.0924
      3 C          64.1249   90.2010   13.6366 C.3     1  UNL1        0.0950
      4 N          64.8855   91.3417   13.0279 N.am    1  UNL1       -0.2706
      5 C          65.4909   92.3942   13.9087 C.2     1  UNL1        0.4020
      6 O          65.3358   92.3060   15.3980 O.2     1  UNL1       -0.2264
      7 H          64.9873   91.3996   12.0504 H       1  UNL1        0.1527
      8 O          66.2515   93.5348   13.3000 O.3     1  UNL1       -0.4274
      9 C          65.9643   93.9606   11.8907 C.3     1  UNL1        0.2621
     10 C          66.8972   93.5679   10.7837 C.ar    1  UNL1        0.1323
     11 N          67.8222   92.3871   10.7874 N.ar    1  UNL1       -0.2374
     12 C          68.5655   92.3765    9.4846 C.ar    1  UNL1        0.1062
     13 C          68.1000   93.5508    8.6757 C.ar    1  UNL1        0.0573
     14 S          67.0689   94.2871    9.4786 S.2     1  UNL1       -0.0666
     15 C          64.8619   89.0912   14.3259 C.3     1  UNL1        0.0474
     16 C          64.1669   88.2606   15.3637 C.ar    1  UNL1       -0.0205
     17 C          64.3091   86.7675   15.3480 C.ar    1  UNL1       -0.0042
     18 C          63.6141   85.9369   16.3858 C.ar    1  UNL1       -0.0003
     19 C          62.7769   86.5995   17.4395 C.ar    1  UNL1       -0.0000
     20 C          62.6347   88.0927   17.4552 C.ar    1  UNL1       -0.0003
     21 C          63.3298   88.9233   16.4173 C.ar    1  UNL1       -0.0042
     22 C          62.7442   88.3948   11.6626 C.3     1  UNL1        0.0924
     23 C          62.5069   86.9204   11.8031 C.3     1  UNL1        0.0950
     24 N          63.4226   86.0911   12.6538 N.am    1  UNL1       -0.2706
     25 C          63.3457   84.5940   12.5996 C.2     1  UNL1        0.4020
     26 O          62.3531   83.9263   11.6948 O.2     1  UNL1       -0.2264
     27 H          64.0742   86.5293   13.2477 H       1  UNL1        0.1527
     28 O          64.2615   83.7647   13.4504 O.3     1  UNL1       -0.4291
     29 C          64.2351   82.2688   13.3430 C.3     1  UNL1        0.2447
     30 C          62.9625   81.5202   13.6076 C.ar    1  UNL1        0.0714
     31 C          61.8206   81.9949   14.4566 C.ar    1  UNL1        0.1053
     32 N          60.7607   80.9336   14.4435 N.ar    1  UNL1       -0.2350
     33 C          61.2476   79.8029   13.5864 C.ar    1  UNL1        0.1343
     34 S          62.6084   80.1655   13.0698 S.2     1  UNL1       -0.0652
     35 C          61.3539   86.2753   11.0930 C.3     1  UNL1        0.0474
     36 C          61.4733   85.9156    9.6417 C.ar    1  UNL1       -0.0205
     37 C          60.2966   86.0868    8.7273 C.ar    1  UNL1       -0.0042
     38 C          60.4161   85.7271    7.2759 C.ar    1  UNL1       -0.0003
     39 C          61.7122   85.1962    6.7390 C.ar    1  UNL1       -0.0000
     40 C          62.8888   85.0250    7.6534 C.ar    1  UNL1       -0.0003
     41 C          62.7694   85.3847    9.1047 C.ar    1  UNL1       -0.0042
     42 C          60.4794   89.5276   12.2432 C.3     1  UNL1        0.0722
     43 C          59.9973   90.2254   11.0060 C.3     1  UNL1        0.0173
     44 C          62.1484   90.7268    9.6382 C.3     1  UNL1        0.0000
     45 C          60.7805   90.1185    9.7312 C.3     1  UNL1        0.0014
     46 C          60.1958   89.4033    8.5494 C.3     1  UNL1        0.0000
@<TRIPOS>BOND
     1    44    45    1
     2    45    46    1
     3    45    43    1
     4    43    42    1
     5    42     1    1
     6     1    22    1
     7    23    22    1
     8    23    35    1
     9    35    36    1
    10    36    37   ar
    11    37    38   ar
    12    38    39   ar
    13    39    40   ar
    14    40    41   ar
    15    23    24    1
    16    24    25   am
    17    25    26    2
    18    25    28    1
    19    28    29    1
    20    29    30    1
    21    30    31   ar
    22    31    32   ar
    23    32    33   ar
    24    33    34   ar
    25     1     2    1
    26     3     2    1
    27     3    15    1
    28    15    16    1
    29    16    17   ar
    30    17    18   ar
    31    18    19   ar
    32    19    20   ar
    33    20    21   ar
    34     3     4    1
    35     4     5   am
    36     5     6    2
    37     5     8    1
    38     8     9    1
    39     9    10    1
    40    10    11   ar
    41    11    12   ar
    42    12    13   ar
    43    13    14   ar
    44    41    36   ar
    45    34    30   ar
    46    21    16   ar
    47    14    10   ar
    48    24    27    1
    49     4     7    1
@<TRIPOS>MOLECULE
*****
 46 49 0 0 0
SMALL
GASTEIGER

@<TRIPOS>ATOM
      1 N          63.7700   87.8376   13.6358 N.3     1  UNL1       -0.2699
      2 C          63.1992   89.2202   13.7485 C.3     1  UNL1        0.0924
      3 C          63.9280   90.3840   13.1449 C.3     1  UNL1        0.0950
      4 N          65.1355   90.9505   13.8314 N.am    1  UNL1       -0.2706
      5 C          64.9906   91.6419   15.1546 C.2     1  UNL1        0.4020
      6 O          63.6382   91.7668   15.7914 O.2     1  UNL1       -0.2264
      7 H          66.0230   90.8685   13.4134 H       1  UNL1        0.1527
      8 O          66.1980   92.2083   15.8409 O.3     1  UNL1       -0.4274
      9 C          67.2530   92.9143   15.0416 C.3     1  UNL1        0.2621
     10 C          67.0740   93.1026   13.5643 C.ar    1  UNL1        0.1323
     11 N          67.5818   92.1863   12.4907 N.ar    1  UNL1       -0.2374
     12 C          67.1774   92.7577   11.1641 C.ar    1  UNL1        0.1062
     13 C          66.4197   94.0273   11.4178 C.ar    1  UNL1        0.0573
     14 S          66.3558   94.2404   12.9012 S.2     1  UNL1       -0.0666
     15 C          63.4494   90.9813   11.8549 C.3     1  UNL1        0.0474
     16 C          62.2056   90.4563   11.2012 C.ar    1  UNL1       -0.0205
     17 C          60.9046   90.4663   11.9475 C.ar    1  UNL1       -0.0042
     18 C          59.6608   89.9412   11.2937 C.ar    1  UNL1       -0.0003
     19 C          59.7182   89.4062    9.8935 C.ar    1  UNL1       -0.0000
     20 C          61.0193   89.3963    9.1471 C.ar    1  UNL1       -0.0003
     21 C          62.2630   89.9214    9.8010 C.ar    1  UNL1       -0.0042
     22 C          63.5287   87.0252   12.3982 C.3     1  UNL1        0.0924
     23 C          62.3110   86.1549   12.2979 C.3     1  UNL1        0.0950
     24 N          62.1161   85.0236   13.2633 N.am    1  UNL1       -0.2706
     25 C          63.2598   84.1088   13.5876 C.2     1  UNL1        0.4020
     26 O          64.5984   84.3254   12.9465 O.2     1  UNL1       -0.2264
     27 H          61.2375   84.8814   13.6841 H       1  UNL1        0.1527
     28 O          63.0648   82.9775   14.5531 O.3     1  UNL1       -0.4291
     29 C          62.2280   81.7950   14.1637 C.3     1  UNL1        0.2447
     30 C          62.5063   81.0692   12.8808 C.ar    1  UNL1        0.0714
     31 C          62.4407   79.5847   12.6756 C.ar    1  UNL1        0.1053
     32 N          62.7928   79.2985   11.2459 N.ar    1  UNL1       -0.2350
     33 C          63.0760   80.6060   10.5675 C.ar    1  UNL1        0.1343
     34 S          62.8989   81.7004   11.5780 S.2     1  UNL1       -0.0652
     35 C          61.2883   86.4160   11.2321 C.3     1  UNL1        0.0474
     36 C          61.5310   85.9461    9.8285 C.ar    1  UNL1       -0.0205
     37 C          60.4600   86.1011    8.7898 C.ar    1  UNL1       -0.0042
     38 C          60.7028   85.6312    7.3861 C.ar    1  UNL1       -0.0003
     39 C          62.0166   85.0062    7.0212 C.ar    1  UNL1       -0.0000
     40 C          63.0877   84.8512    8.0598 C.ar    1  UNL1       -0.0003
     41 C          62.8449   85.3211    9.4634 C.ar    1  UNL1       -0.0042
     42 C          64.5821   87.2675   14.7607 C.3     1  UNL1        0.0722
     43 C          63.9133   86.4638   15.8363 C.3     1  UNL1        0.0173
     44 C          63.1506   88.6562   17.0029 C.3     1  UNL1        0.0000
     45 C          63.1659   87.1578   16.9361 C.3     1  UNL1        0.0014
     46 C          62.4339   86.3534   17.9691 C.3     1  UNL1        0.0000
@<TRIPOS>BOND
     1    44    45    1
     2    45    46    1
     3    45    43    1
     4    43    42    1
     5    42     1    1
     6     1    22    1
     7    23    22    1
     8    23    35    1
     9    35    36    1
    10    36    37   ar
    11    37    38   ar
    12    38    39   ar
    13    39    40   ar
    14    40    41   ar
    15    23    24    1
    16    24    25   am
    17    25    26    2
    18    25    28    1
    19    28    29    1
    20    29    30    1
    21    30    31   ar
    22    31    32   ar
    23    32    33   ar
    24    33    34   ar
    25     1     2    1
    26     3     2    1
    27     3    15    1
    28    15    16    1
    29    16    17   ar
    30    17    18   ar
    31    18    19   ar
    32    19    20   ar
    33    20    21   ar
    34     3     4    1
    35     4     5   am
    36     5     6    2
    37     5     8    1
    38     8     9    1
    39     9    10    1
    40    10    11   ar
    41    11    12   ar
    42    12    13   ar
    43    13    14   ar
    44    41    36   ar
    45    34    30   ar
    46    21    16   ar
    47    14    10   ar
    48    24    27    1
    49     4     7    1
@<TRIPOS>MOLECULE
*****
 46 49 0 0 0
SMALL
GASTEIGER

@<TRIPOS>ATOM
      1 N          62.5916   87.4774   12.0870 N.3     1  UNL1       -0.2699
      2 C          62.6045   87.5625   13.5845 C.3     1  UNL1        0.0924
      3 C          63.8743   87.9060   14.3053 C.3     1  UNL1        0.0950
      4 N          64.2835   89.3407   14.4614 N.am    1  UNL1       -0.2706
      5 C          63.4943   90.2530   15.3529 C.2     1  UNL1        0.4020
      6 O          62.2957   89.7307   16.0882 O.2     1  UNL1       -0.2264
      7 H          65.0702   89.6835   13.9788 H       1  UNL1        0.1527
      8 O          63.9035   91.6876   15.5090 O.3     1  UNL1       -0.4274
      9 C          65.1515   92.0334   16.2660 C.3     1  UNL1        0.2621
     10 C          66.4616   92.1405   15.5434 C.ar    1  UNL1        0.1323
     11 N          66.7792   91.5503   14.2014 N.ar    1  UNL1       -0.2374
     12 C          68.1980   91.9016   13.8646 C.ar    1  UNL1        0.1062
     13 C          68.7573   92.7088   14.9985 C.ar    1  UNL1        0.0573
     14 S          67.6842   92.8564   16.0360 S.2     1  UNL1       -0.0666
     15 C          64.7349   86.8149   14.8700 C.3     1  UNL1        0.0474
     16 C          64.3057   85.3828   14.7492 C.ar    1  UNL1       -0.0205
     17 C          63.1367   84.8806   15.5438 C.ar    1  UNL1       -0.0042
     18 C          62.7075   83.4485   15.4231 C.ar    1  UNL1       -0.0003
     19 C          63.4472   82.5184   14.5077 C.ar    1  UNL1       -0.0000
     20 C          64.6162   83.0205   13.7131 C.ar    1  UNL1       -0.0003
     21 C          65.0454   84.4528   13.8339 C.ar    1  UNL1       -0.0042
     22 C          63.1900   88.5823   11.2678 C.3     1  UNL1        0.0924
     23 C          62.3023   89.6155   10.6396 C.3     1  UNL1        0.0950
     24 N          62.8988   90.8615   10.0553 N.am    1  UNL1       -0.2706
     25 C          63.8912   91.6605   10.8469 C.2     1  UNL1        0.4020
     26 O          64.2872   91.2134   12.2229 O.2     1  UNL1       -0.2264
     27 H          62.6389   91.1550    9.1522 H       1  UNL1        0.1527
     28 O          64.4877   92.9066   10.2625 O.3     1  UNL1       -0.4291
     29 C          65.9581   93.1698   10.3995 C.3     1  UNL1        0.2447
     30 C          66.5202   94.5055   10.0124 C.ar    1  UNL1        0.0714
     31 C          66.4290   95.7676   10.8180 C.ar    1  UNL1        0.1053
     32 N          67.1246   96.8558   10.0552 N.ar    1  UNL1       -0.2350
     33 C          67.6457   96.2663    8.7781 C.ar    1  UNL1        0.1343
     34 S          67.2722   94.8138    8.7517 S.2     1  UNL1       -0.0652
     35 C          60.8181   89.4025   10.5957 C.3     1  UNL1        0.0474
     36 C          60.1821   88.8035    9.3765 C.ar    1  UNL1       -0.0205
     37 C          59.9522   89.6484    8.1586 C.ar    1  UNL1       -0.0042
     38 C          59.3162   89.0494    6.9393 C.ar    1  UNL1       -0.0003
     39 C          58.9100   87.6054    6.9380 C.ar    1  UNL1       -0.0000
     40 C          59.1399   86.7605    8.1559 C.ar    1  UNL1       -0.0003
     41 C          59.7759   87.3595    9.3751 C.ar    1  UNL1       -0.0042
     42 C          61.9803   86.2874   11.4087 C.3     1  UNL1        0.0722
     43 C          62.7349   84.9927   11.3413 C.3     1  UNL1        0.0173
     44 C          64.0135   83.2031    9.9585 C.3     1  UNL1        0.0000
     45 C          63.2570   84.4966   10.0255 C.3     1  UNL1        0.0014
     46 C          63.0225   85.2939    8.7768 C.3     1  UNL1        0.0000
@<TRIPOS>BOND
     1    44    45    1
     2    45    46    1
     3    45    43    1
     4    43    42    1
     5    42     1    1
     6     1    22    1
     7    23    22    1
     8    23    35    1
     9    35    36    1
    10    36    37   ar
    11    37    38   ar
    12    38    39   ar
    13    39    40   ar
    14    40    41   ar
    15    23    24    1
    16    24    25   am
    17    25    26    2
    18    25    28    1
    19    28    29    1
    20    29    30    1
    21    30    31   ar
    22    31    32   ar
    23    32    33   ar
    24    33    34   ar
    25     1     2    1
    26     3     2    1
    27     3    15    1
    28    15    16    1
    29    16    17   ar
    30    17    18   ar
    31    18    19   ar
    32    19    20   ar
    33    20    21   ar
    34     3     4    1
    35     4     5   am
    36     5     6    2
    37     5     8    1
    38     8     9    1
    39     9    10    1
    40    10    11   ar
    41    11    12   ar
    42    12    13   ar
    43    13    14   ar
    44    41    36   ar
    45    34    30   ar
    46    21    16   ar
    47    14    10   ar
    48    24    27    1
    49     4     7    1
