@<TRIPOS>MOLECULE
*****
 26 28 0 0 0
SMALL
GASTEIGER

@<TRIPOS>ATOM
      1 S          63.8364   89.6826   13.6746 S.O2    1  UNL1        0.0456
      2 O          65.0268   89.3998   14.5423 O.2     1  UNL1       -0.1572
      3 O          62.6461   89.9654   12.8069 O.2     1  UNL1       -0.1572
      4 N          63.6570   88.2116   13.4415 N.3     1  UNL1       -0.1559
      5 C          64.1782   87.2244   14.4433 C.3     1  UNL1        0.1168
      6 C          63.9987   85.7536   14.2102 C.3     1  UNL1        0.1099
      7 N          63.2980   85.2700   12.9753 N.pl3   1  UNL1       -0.3045
      8 C          62.7767   86.2572   11.9735 C.3     1  UNL1        0.1099
      9 C          62.9562   87.7280   12.2066 C.3     1  UNL1        0.1168
     10 C          63.1185   83.7991   12.7422 C.ar    1  UNL1        0.0481
     11 C          62.6607   82.9126   13.8622 C.ar    1  UNL1        0.0168
     12 C          62.4813   81.4417   13.6292 C.ar    1  UNL1        0.0309
     13 C          62.7595   80.8573   12.2760 C.ar    1  UNL1        0.1402
     14 F          62.5801   79.3865   12.0429 F       1  UNL1       -0.2042
     15 C          63.2173   81.7439   11.1559 C.ar    1  UNL1        0.0309
     16 C          63.3967   83.2147   11.3890 C.ar    1  UNL1        0.0168
     17 C          64.0160   91.1534   13.9077 C.3     1  UNL1        0.1895
     18 C          65.1639   91.8791   13.2708 C.3     1  UNL1        0.1099
     19 C          64.5188   91.7194   11.9260 C.3     1  UNL1        0.0226
     20 C          65.6667   92.4451   11.2892 C.3     1  UNL1        0.0036
     21 C          66.3118   92.6048   12.6339 C.3     1  UNL1        0.0226
     22 O          67.9482   92.1566   16.0851 O.2     1  UNL1       -0.2627
     23 C          67.3032   91.9968   14.7403 C.2     1  UNL1        0.3267
     24 N          65.8090   92.0388   14.6155 N.am    1  UNL1       -0.1662
     25 O          64.9599   92.2406   15.8355 O.3     1  UNL1       -0.2915
     26 H          65.5299   92.3255   16.6157 H       1  UNL1        0.2417
@<TRIPOS>BOND
     1    22    23    2
     2    23    24   am
     3    24    25    1
     4    24    18    1
     5    18    17    1
     6    17     1    1
     7     1     2    2
     8     1     3    2
     9     1     4    1
    10     4     5    1
    11     5     6    1
    12     6     7    1
    13     7    10    1
    14    10    11   ar
    15    11    12   ar
    16    12    13   ar
    17    13    14    1
    18    13    15   ar
    19    15    16   ar
    20     7     8    1
    21     8     9    1
    22    18    19    1
    23    19    20    1
    24    20    21    1
    25    21    18    1
    26     9     4    1
    27    16    10   ar
    28    25    26    1
@<TRIPOS>MOLECULE
*****
 26 28 0 0 0
SMALL
GASTEIGER

@<TRIPOS>ATOM
      1 S          61.6054   89.3173   11.0595 S.O2    1  UNL1        0.0456
      2 O          60.7491   89.3557   12.2905 O.2     1  UNL1       -0.1572
      3 O          62.4616   89.2790    9.8285 O.2     1  UNL1       -0.1572
      4 N          62.7363   89.9355   11.8270 N.3     1  UNL1       -0.1559
      5 C          63.1599   89.3491   13.1410 C.3     1  UNL1        0.1168
      6 C          64.2908   89.9673   13.9084 C.3     1  UNL1        0.1099
      7 N          64.9980   91.1719   13.3617 N.pl3   1  UNL1       -0.3045
      8 C          64.5744   91.7583   12.0478 C.3     1  UNL1        0.1099
      9 C          63.4435   91.1401   11.2804 C.3     1  UNL1        0.1168
     10 C          66.1289   91.7901   14.1292 C.ar    1  UNL1        0.0481
     11 C          65.9015   92.2959   15.5229 C.ar    1  UNL1        0.0168
     12 C          67.0324   92.9141   16.2904 C.ar    1  UNL1        0.0309
     13 C          68.3908   93.0264   15.6641 C.ar    1  UNL1        0.1402
     14 F          69.5217   93.6446   16.4314 F       1  UNL1       -0.2042
     15 C          68.6182   92.5206   14.2703 C.ar    1  UNL1        0.0309
     16 C          67.4873   91.9025   13.5029 C.ar    1  UNL1        0.0168
     17 C          60.4745   88.6992   10.2921 C.3     1  UNL1        0.1895
     18 C          60.6353   87.3361    9.6870 C.3     1  UNL1        0.1099
     19 C          61.5668   86.9526   10.7985 C.3     1  UNL1        0.0226
     20 C          61.7277   85.5896   10.1934 C.3     1  UNL1        0.0036
     21 C          60.7962   85.9730    9.0820 C.3     1  UNL1        0.0226
     22 O          58.9666   89.4004    6.7368 O.2     1  UNL1       -0.2627
     23 C          59.8981   89.0169    7.8482 C.2     1  UNL1        0.3267
     24 N          59.7039   87.7195    8.5756 N.am    1  UNL1       -0.1662
     25 O          58.5782   86.8056    8.1915 O.3     1  UNL1       -0.2915
     26 H          58.0761   87.2003    7.4614 H       1  UNL1        0.2417
@<TRIPOS>BOND
     1    22    23    2
     2    23    24   am
     3    24    25    1
     4    24    18    1
     5    18    17    1
     6    17     1    1
     7     1     2    2
     8     1     3    2
     9     1     4    1
    10     4     5    1
    11     5     6    1
    12     6     7    1
    13     7    10    1
    14    10    11   ar
    15    11    12   ar
    16    12    13   ar
    17    13    14    1
    18    13    15   ar
    19    15    16   ar
    20     7     8    1
    21     8     9    1
    22    18    19    1
    23    19    20    1
    24    20    21    1
    25    21    18    1
    26     9     4    1
    27    16    10   ar
    28    25    26    1
@<TRIPOS>MOLECULE
*****
 26 28 0 0 0
SMALL
GASTEIGER

@<TRIPOS>ATOM
      1 S          61.2850   89.9343   10.8117 S.O2    1  UNL1        0.0456
      2 O          62.2123   89.4252    9.7484 O.2     1  UNL1       -0.1572
      3 O          60.3576   90.4435   11.8750 O.2     1  UNL1       -0.1572
      4 N          62.4619   90.4144   11.6083 N.3     1  UNL1       -0.1559
      5 C          63.4662   91.3355   10.9817 C.3     1  UNL1        0.1168
      6 C          64.6431   91.8155   11.7783 C.3     1  UNL1        0.1099
      7 N          64.8156   91.3743   13.2015 N.pl3   1  UNL1       -0.3045
      8 C          63.8113   90.4531   13.8281 C.3     1  UNL1        0.1099
      9 C          62.6344   89.9732   13.0315 C.3     1  UNL1        0.1168
     10 C          65.9926   91.8543   13.9981 C.ar    1  UNL1        0.0481
     11 C          67.3567   91.8871   13.3752 C.ar    1  UNL1        0.0168
     12 C          68.5336   92.3671   14.1717 C.ar    1  UNL1        0.0309
     13 C          68.3464   92.8143   15.5912 C.ar    1  UNL1        0.1402
     14 F          69.5232   93.2943   16.3878 F       1  UNL1       -0.2042
     15 C          66.9821   92.7814   16.2142 C.ar    1  UNL1        0.0309
     16 C          65.8053   92.3014   15.4176 C.ar    1  UNL1        0.0168
     17 C          60.1081   89.4543   10.0152 C.3     1  UNL1        0.1895
     18 C          60.1156   88.0767    9.4220 C.3     1  UNL1        0.1099
     19 C          59.8284   88.6576    8.0692 C.3     1  UNL1        0.0226
     20 C          59.8359   87.2799    7.4760 C.3     1  UNL1        0.0036
     21 C          60.1231   86.6990    8.8287 C.3     1  UNL1        0.0226
     22 O          61.7926   85.9115   12.2942 O.2     1  UNL1       -0.2627
     23 C          61.5054   86.4925   10.9414 C.2     1  UNL1        0.3267
     24 N          60.4028   87.4957   10.7747 N.am    1  UNL1       -0.1662
     25 O          59.5876   87.9181   11.9608 O.3     1  UNL1       -0.2915
     26 H          59.9010   87.4515   12.7514 H       1  UNL1        0.2417
@<TRIPOS>BOND
     1    22    23    2
     2    23    24   am
     3    24    25    1
     4    24    18    1
     5    18    17    1
     6    17     1    1
     7     1     2    2
     8     1     3    2
     9     1     4    1
    10     4     5    1
    11     5     6    1
    12     6     7    1
    13     7    10    1
    14    10    11   ar
    15    11    12   ar
    16    12    13   ar
    17    13    14    1
    18    13    15   ar
    19    15    16   ar
    20     7     8    1
    21     8     9    1
    22    18    19    1
    23    19    20    1
    24    20    21    1
    25    21    18    1
    26     9     4    1
    27    16    10   ar
    28    25    26    1
@<TRIPOS>MOLECULE
*****
 26 28 0 0 0
SMALL
GASTEIGER

@<TRIPOS>ATOM
      1 S          64.1100   90.0723   13.6235 S.O2    1  UNL1        0.0456
      2 O          65.1300   89.7953   14.6878 O.2     1  UNL1       -0.1572
      3 O          63.0900   90.3492   12.5592 O.2     1  UNL1       -0.1572
      4 N          63.8656   88.5998   13.4746 N.3     1  UNL1       -0.1559
      5 C          64.3575   87.6480   14.5244 C.3     1  UNL1        0.1168
      6 C          64.1131   86.1756   14.3755 C.3     1  UNL1        0.1099
      7 N          63.3767   85.6550   13.1769 N.pl3   1  UNL1       -0.3045
      8 C          62.8848   86.6068   12.1271 C.3     1  UNL1        0.1099
      9 C          63.1292   88.0792   12.2760 C.3     1  UNL1        0.1168
     10 C          63.1323   84.1825   13.0280 C.ar    1  UNL1        0.0481
     11 C          63.3819   83.5102   11.7106 C.ar    1  UNL1        0.0168
     12 C          63.1375   82.0376   11.5618 C.ar    1  UNL1        0.0309
     13 C          62.6434   81.2375   12.7304 C.ar    1  UNL1        0.1402
     14 F          62.3990   79.7651   12.5816 F       1  UNL1       -0.2042
     15 C          62.3937   81.9099   14.0479 C.ar    1  UNL1        0.0309
     16 C          62.6382   83.3823   14.1967 C.ar    1  UNL1        0.0168
     17 C          64.3545   91.5447   13.7724 C.3     1  UNL1        0.1895
     18 C          65.6588   92.0361   14.3265 C.3     1  UNL1        0.1099
     19 C          65.0862   91.9935   15.7122 C.3     1  UNL1        0.0226
     20 C          66.3905   92.4850   16.2664 C.3     1  UNL1        0.0036
     21 C          66.9632   92.5276   14.8806 C.3     1  UNL1        0.0226
     22 O          68.2806   91.9566   11.3483 O.2     1  UNL1       -0.2627
     23 C          67.7079   91.9139   12.7340 C.2     1  UNL1        0.3267
     24 N          66.2315   92.0788   12.9408 N.am    1  UNL1       -0.1662
     25 O          65.3276   92.2862   11.7618 O.3     1  UNL1       -0.2915
     26 H          65.8541   92.2879   10.9471 H       1  UNL1        0.2417
@<TRIPOS>BOND
     1    22    23    2
     2    23    24   am
     3    24    25    1
     4    24    18    1
     5    18    17    1
     6    17     1    1
     7     1     2    2
     8     1     3    2
     9     1     4    1
    10     4     5    1
    11     5     6    1
    12     6     7    1
    13     7    10    1
    14    10    11   ar
    15    11    12   ar
    16    12    13   ar
    17    13    14    1
    18    13    15   ar
    19    15    16   ar
    20     7     8    1
    21     8     9    1
    22    18    19    1
    23    19    20    1
    24    20    21    1
    25    21    18    1
    26     9     4    1
    27    16    10   ar
    28    25    26    1
@<TRIPOS>MOLECULE
*****
 26 28 0 0 0
SMALL
GASTEIGER

@<TRIPOS>ATOM
      1 S          63.9655   89.4116   13.9037 S.O2    1  UNL1        0.0456
      2 O          63.9255   89.6585   12.4248 O.2     1  UNL1       -0.1572
      3 O          64.0055   89.1646   15.3827 O.2     1  UNL1       -0.1572
      4 N          63.7568   87.9455   13.6645 N.3     1  UNL1       -0.1559
      5 C          64.2681   86.9434   14.6567 C.3     1  UNL1        0.1168
      6 C          64.0594   85.4775   14.4174 C.3     1  UNL1        0.1099
      7 N          63.3395   85.0135   13.1860 N.pl3   1  UNL1       -0.3045
      8 C          62.8282   86.0156   12.1938 C.3     1  UNL1        0.1099
      9 C          63.0369   87.4816   12.4330 C.3     1  UNL1        0.1168
     10 C          63.1308   83.5474   12.9467 C.ar    1  UNL1        0.0481
     11 C          62.7134   82.6549   14.0777 C.ar    1  UNL1        0.0168
     12 C          62.5047   81.1889   13.8385 C.ar    1  UNL1        0.0309
     13 C          62.7134   80.6154   12.4682 C.ar    1  UNL1        0.1402
     14 F          62.5048   79.1494   12.2290 F       1  UNL1       -0.2042
     15 C          63.1309   81.5080   11.3372 C.ar    1  UNL1        0.0309
     16 C          63.3395   82.9740   11.5765 C.ar    1  UNL1        0.0168
     17 C          64.1742   90.8776   14.1429 C.3     1  UNL1        0.1895
     18 C          65.4844   91.5163   13.7886 C.3     1  UNL1        0.1099
     19 C          66.1158   90.8912   14.9972 C.3     1  UNL1        0.0226
     20 C          67.4260   91.5299   14.6429 C.3     1  UNL1        0.0036
     21 C          66.7945   92.1550   13.4344 C.3     1  UNL1        0.0226
     22 O          65.0813   93.2514   10.2422 O.2     1  UNL1       -0.2627
     23 C          65.7127   92.6263   11.4508 C.2     1  UNL1        0.3267
     24 N          64.8529   92.1413   12.5801 N.am    1  UNL1       -0.1662
     25 O          63.3616   92.2813   12.5008 O.3     1  UNL1       -0.2915
     26 H          63.1205   92.7022   11.6608 H       1  UNL1        0.2417
@<TRIPOS>BOND
     1    22    23    2
     2    23    24   am
     3    24    25    1
     4    24    18    1
     5    18    17    1
     6    17     1    1
     7     1     2    2
     8     1     3    2
     9     1     4    1
    10     4     5    1
    11     5     6    1
    12     6     7    1
    13     7    10    1
    14    10    11   ar
    15    11    12   ar
    16    12    13   ar
    17    13    14    1
    18    13    15   ar
    19    15    16   ar
    20     7     8    1
    21     8     9    1
    22    18    19    1
    23    19    20    1
    24    20    21    1
    25    21    18    1
    26     9     4    1
    27    16    10   ar
    28    25    26    1
@<TRIPOS>MOLECULE
*****
 26 28 0 0 0
SMALL
GASTEIGER

@<TRIPOS>ATOM
      1 S          62.8969   85.2569   13.1039 S.O2    1  UNL1        0.0456
      2 O          64.0368   84.7383   13.9296 O.2     1  UNL1       -0.1572
      3 O          61.7571   85.7755   12.2783 O.2     1  UNL1       -0.1572
      4 N          63.4294   86.6521   13.2452 N.3     1  UNL1       -0.1559
      5 C          64.2968   87.0089   14.4158 C.3     1  UNL1        0.1168
      6 C          64.8292   88.4040   14.5570 C.3     1  UNL1        0.1099
      7 N          64.4943   89.4424   13.5276 N.pl3   1  UNL1       -0.3045
      8 C          63.6270   89.0856   12.3570 C.3     1  UNL1        0.1099
      9 C          63.0945   87.6905   12.2158 C.3     1  UNL1        0.1168
     10 C          65.0268   90.8376   13.6689 C.ar    1  UNL1        0.0481
     11 C          65.0744   91.7465   12.4766 C.ar    1  UNL1        0.0168
     12 C          65.6069   93.1418   12.6179 C.ar    1  UNL1        0.0309
     13 C          66.0918   93.6280   13.9515 C.ar    1  UNL1        0.1402
     14 F          66.6243   95.0231   14.0928 F       1  UNL1       -0.2042
     15 C          66.0442   92.7190   15.1438 C.ar    1  UNL1        0.0309
     16 C          65.5117   91.3238   15.0025 C.ar    1  UNL1        0.0168
     17 C          62.3645   83.8617   12.9627 C.3     1  UNL1        0.1895
     18 C          63.0834   82.8685   12.0985 C.3     1  UNL1        0.1099
     19 C          63.2909   83.9263   11.0554 C.3     1  UNL1        0.0226
     20 C          64.0097   82.9330   10.1912 C.3     1  UNL1        0.0036
     21 C          63.8022   81.8753   11.2344 C.3     1  UNL1        0.0226
     22 O          62.2199   79.3796   13.7814 O.2     1  UNL1       -0.2627
     23 C          62.4274   80.4374   12.7383 C.2     1  UNL1        0.3267
     24 N          62.8758   81.8107   13.1416 N.am    1  UNL1       -0.1662
     25 O          63.1168   82.1263   14.5881 O.3     1  UNL1       -0.2915
     26 H          62.9378   81.3386   15.1251 H       1  UNL1        0.2417
@<TRIPOS>BOND
     1    22    23    2
     2    23    24   am
     3    24    25    1
     4    24    18    1
     5    18    17    1
     6    17     1    1
     7     1     2    2
     8     1     3    2
     9     1     4    1
    10     4     5    1
    11     5     6    1
    12     6     7    1
    13     7    10    1
    14    10    11   ar
    15    11    12   ar
    16    12    13   ar
    17    13    14    1
    18    13    15   ar
    19    15    16   ar
    20     7     8    1
    21     8     9    1
    22    18    19    1
    23    19    20    1
    24    20    21    1
    25    21    18    1
    26     9     4    1
    27    16    10   ar
    28    25    26    1
@<TRIPOS>MOLECULE
*****
 26 28 0 0 0
SMALL
GASTEIGER

@<TRIPOS>ATOM
      1 S          66.0464   93.9957   12.0913 S.O2    1  UNL1        0.0456
      2 O          66.8342   94.4218   13.2946 O.2     1  UNL1       -0.1572
      3 O          65.2586   93.5695   10.8881 O.2     1  UNL1       -0.1572
      4 N          65.5683   92.7832   12.8339 N.3     1  UNL1       -0.1559
      5 C          64.4731   91.9349   12.2586 C.3     1  UNL1        0.1168
      6 C          63.9951   90.7224   13.0012 C.3     1  UNL1        0.1099
      7 N          64.6123   90.3582   14.3189 N.pl3   1  UNL1       -0.3045
      8 C          65.7074   91.2065   14.8942 C.3     1  UNL1        0.1099
      9 C          66.1855   92.4190   14.1517 C.3     1  UNL1        0.1168
     10 C          64.1342   89.1457   15.0615 C.ar    1  UNL1        0.0481
     11 C          64.4586   87.7747   14.5467 C.ar    1  UNL1        0.0168
     12 C          63.9805   86.5622   15.2892 C.ar    1  UNL1        0.0309
     13 C          63.1780   86.7207   16.5465 C.ar    1  UNL1        0.1402
     14 F          62.6999   85.5083   17.2891 F       1  UNL1       -0.2042
     15 C          62.8536   88.0918   17.0613 C.ar    1  UNL1        0.0309
     16 C          63.3316   89.3043   16.3188 C.ar    1  UNL1        0.0168
     17 C          66.5245   95.2082   11.3489 C.3     1  UNL1        0.1895
     18 C          66.4640   95.2423    9.8505 C.3     1  UNL1        0.1099
     19 C          65.5016   96.3910    9.9155 C.3     1  UNL1        0.0226
     20 C          65.4411   96.4251    8.4171 C.3     1  UNL1        0.0036
     21 C          66.4036   95.2765    8.3521 C.3     1  UNL1        0.0226
     22 O          68.8128   92.3960    8.3905 O.2     1  UNL1       -0.2627
     23 C          67.8503   93.5446    8.4555 C.2     1  UNL1        0.3267
     24 N          67.4265   94.0937    9.7855 N.am    1  UNL1       -0.1662
     25 O          67.9652   93.4940   11.0505 O.3     1  UNL1       -0.2915
     26 H          68.5693   92.7672   10.8321 H       1  UNL1        0.2417
@<TRIPOS>BOND
     1    22    23    2
     2    23    24   am
     3    24    25    1
     4    24    18    1
     5    18    17    1
     6    17     1    1
     7     1     2    2
     8     1     3    2
     9     1     4    1
    10     4     5    1
    11     5     6    1
    12     6     7    1
    13     7    10    1
    14    10    11   ar
    15    11    12   ar
    16    12    13   ar
    17    13    14    1
    18    13    15   ar
    19    15    16   ar
    20     7     8    1
    21     8     9    1
    22    18    19    1
    23    19    20    1
    24    20    21    1
    25    21    18    1
    26     9     4    1
    27    16    10   ar
    28    25    26    1
@<TRIPOS>MOLECULE
*****
 26 28 0 0 0
SMALL
GASTEIGER

@<TRIPOS>ATOM
      1 S          62.4422   89.9836   11.0130 S.O2    1  UNL1        0.0456
      2 O          62.3637   88.8190   11.9551 O.2     1  UNL1       -0.1572
      3 O          62.5207   91.1482   10.0709 O.2     1  UNL1       -0.1572
      4 N          63.5725   90.5566   11.8156 N.3     1  UNL1       -0.1559
      5 C          64.3893   91.6857   11.2609 C.3     1  UNL1        0.1168
      6 C          65.5196   92.2587   12.0635 C.3     1  UNL1        0.1099
      7 N          65.8330   91.7025   13.4208 N.pl3   1  UNL1       -0.3045
      8 C          65.0162   90.5734   13.9756 C.3     1  UNL1        0.1099
      9 C          63.8859   90.0004   13.1730 C.3     1  UNL1        0.1168
     10 C          66.9634   92.2755   14.2234 C.ar    1  UNL1        0.0481
     11 C          66.6748   93.1042   15.4400 C.ar    1  UNL1        0.0168
     12 C          67.8051   93.6772   16.2426 C.ar    1  UNL1        0.0309
     13 C          69.2240   93.4215   15.8286 C.ar    1  UNL1        0.1402
     14 F          70.3543   93.9944   16.6311 F       1  UNL1       -0.2042
     15 C          69.5125   92.5928   14.6119 C.ar    1  UNL1        0.0309
     16 C          68.3822   92.0198   13.8094 C.ar    1  UNL1        0.0168
     17 C          61.3119   89.4106   10.2105 C.3     1  UNL1        0.1895
     18 C          60.0691   88.9320   10.9007 C.3     1  UNL1        0.1099
     19 C          59.9034   90.2802   11.5371 C.3     1  UNL1        0.0226
     20 C          58.6606   89.8016   12.2273 C.3     1  UNL1        0.0036
     21 C          58.8263   88.4534   11.5909 C.3     1  UNL1        0.0226
     22 O          59.9854   86.0230    8.2025 O.2     1  UNL1       -0.2627
     23 C          59.8196   87.3712    8.8388 C.2     1  UNL1        0.3267
     24 N          60.2349   87.5838   10.2644 N.am    1  UNL1       -0.1662
     25 O          60.8159   86.4483   11.0536 O.3     1  UNL1       -0.2915
     26 H          60.8533   85.6541   10.4979 H       1  UNL1        0.2417
@<TRIPOS>BOND
     1    22    23    2
     2    23    24   am
     3    24    25    1
     4    24    18    1
     5    18    17    1
     6    17     1    1
     7     1     2    2
     8     1     3    2
     9     1     4    1
    10     4     5    1
    11     5     6    1
    12     6     7    1
    13     7    10    1
    14    10    11   ar
    15    11    12   ar
    16    12    13   ar
    17    13    14    1
    18    13    15   ar
    19    15    16   ar
    20     7     8    1
    21     8     9    1
    22    18    19    1
    23    19    20    1
    24    20    21    1
    25    21    18    1
    26     9     4    1
    27    16    10   ar
    28    25    26    1
