@<TRIPOS>MOLECULE
*****
 34 38 0 0 0
SMALL
GASTEIGER

@<TRIPOS>ATOM
      1 C          64.2335   90.5597   13.5944 C.3     1  UNL1        0.0754
      2 C          63.4280   90.2379   12.3707 C.3     1  UNL1        0.0194
      3 C          63.0635   88.8153   12.0656 C.3     1  UNL1        0.0282
      4 C          63.5045   87.7144   12.9841 C.3     1  UNL1        0.1420
      5 C          63.1400   86.2917   12.6789 C.ar    1  UNL1        0.0616
      6 C          62.3344   85.9699   11.4552 C.ar    1  UNL1        0.1407
      7 F          61.7430   86.7942   10.3504 F       1  UNL1       -0.2043
      8 C          61.9699   84.5472   11.1500 C.ar    1  UNL1        0.0319
      9 C          62.4110   83.4464   12.0685 C.ar    1  UNL1        0.0351
     10 C          63.2166   83.7683   13.2922 C.ar    1  UNL1        0.1737
     11 F          63.6576   82.6675   14.2108 F       1  UNL1       -0.2010
     12 C          63.5811   85.1909   13.5974 C.ar    1  UNL1        0.1654
     13 O          64.3867   85.5128   14.8211 O.3     1  UNL1       -0.4733
     14 C          64.7512   86.9355   15.1263 C.3     1  UNL1        0.2074
     15 C          64.3101   88.0363   14.2078 C.3     1  UNL1        0.0698
     16 C          64.6746   89.4589   14.5129 C.3     1  UNL1        0.0231
     17 S          62.6989   87.3925   11.7604 S.O2    1  UNL1        0.0093
     18 O          63.0169   86.8974   11.2224 O.2     1  UNL1       -0.1684
     19 O          61.4310   88.1723   11.9451 O.2     1  UNL1       -0.1684
     20 C          61.8934   87.0707   10.5367 C.ar    1  UNL1        0.1059
     21 C          62.5688   86.5114    9.3197 C.ar    1  UNL1        0.0192
     22 C          61.7631   86.1896    8.0960 C.ar    1  UNL1        0.0127
     23 C          60.2821   86.4270    8.0893 C.ar    1  UNL1        0.0578
     24 CL         59.4765   86.1051    6.8657 Cl      1  UNL1       -0.0822
     25 C          59.6066   86.9862    9.3063 C.ar    1  UNL1        0.0127
     26 C          60.4122   87.3081   10.5300 C.ar    1  UNL1        0.0192
     27 N          64.5981   91.9824   13.8996 N.3     1  UNL1       -0.1847
     28 H          64.6285   92.4764   13.0078 H       1  UNL1        0.1484
     29 O          65.1269   92.4872   15.8910 O.2     1  UNL1       -0.1576
     30 S          65.8825   92.2917   14.6100 S.O2    1  UNL1        0.0390
     31 O          66.6380   92.0962   13.3290 O.2     1  UNL1       -0.1576
     32 C          67.1670   92.6010   15.3203 C.3     1  UNL1        0.1457
     33 C          68.2031   93.5935   15.7579 C.3     1  UNL1        0.0270
     34 C          68.3555   92.1442   16.1131 C.3     1  UNL1        0.0270
@<TRIPOS>BOND
     1    29    30    2
     2    30    31    2
     3    30    27    1
     4     1    27    1
     5     1     2    1
     6     2     3    1
     7     3     4    1
     8     4    17    1
     9    17    18    2
    10    17    19    2
    11    17    20    1
    12    20    21   ar
    13    21    22   ar
    14    22    23   ar
    15    23    24    1
    16    23    25   ar
    17    25    26   ar
    18     4     5    1
    19     5     6   ar
    20     6     7    1
    21     6     8   ar
    22     8     9   ar
    23     9    10   ar
    24    10    11    1
    25    10    12   ar
    26    12    13    1
    27    13    14    1
    28    15    14    1
    29    15    16    1
    30    30    32    1
    31    32    33    1
    32    33    34    1
    33    16     1    1
    34    34    32    1
    35    15     4    1
    36    26    20   ar
    37    12     5   ar
    38    27    28    1
@<TRIPOS>MOLECULE
*****
 34 38 0 0 0
SMALL
GASTEIGER

@<TRIPOS>ATOM
      1 C          62.0560   89.2023   11.2160 C.3     1  UNL1        0.0754
      2 C          62.8513   90.1724   10.3935 C.3     1  UNL1        0.0194
      3 C          63.8554   91.0693   11.0547 C.3     1  UNL1        0.0282
      4 C          64.0643   90.9962   12.5383 C.3     1  UNL1        0.1420
      5 C          65.0684   91.8933   13.1994 C.ar    1  UNL1        0.0616
      6 C          65.8637   92.8633   12.3770 C.ar    1  UNL1        0.1407
      7 F          65.9126   93.1951   10.9149 F       1  UNL1       -0.2043
      8 C          66.8679   93.7603   13.0381 C.ar    1  UNL1        0.0319
      9 C          67.0768   93.6872   14.5217 C.ar    1  UNL1        0.0351
     10 C          66.2814   92.7171   15.3441 C.ar    1  UNL1        0.1737
     11 F          66.4902   92.6441   16.8277 F       1  UNL1       -0.2010
     12 C          65.2773   91.8202   14.6830 C.ar    1  UNL1        0.1654
     13 O          64.4819   90.8501   15.5055 O.3     1  UNL1       -0.4733
     14 C          63.4778   89.9531   14.8443 C.3     1  UNL1        0.2074
     15 C          63.2689   90.0262   13.3607 C.3     1  UNL1        0.0698
     16 C          62.2648   89.1293   12.6996 C.3     1  UNL1        0.0231
     17 S          64.8596   91.9663   11.7158 S.O2    1  UNL1        0.0093
     18 O          65.6220   92.0884   11.9143 O.2     1  UNL1       -0.1684
     19 O          63.8860   92.4493   10.6820 O.2     1  UNL1       -0.1684
     20 C          65.6549   92.9364   10.8934 C.ar    1  UNL1        0.1059
     21 C          66.9110   92.4857   10.2084 C.ar    1  UNL1        0.0192
     22 C          67.7063   93.4558    9.3859 C.ar    1  UNL1        0.0127
     23 C          67.2455   94.8766    9.2485 C.ar    1  UNL1        0.0578
     24 CL         68.0408   95.8467    8.4260 Cl      1  UNL1       -0.0822
     25 C          65.9894   95.3274    9.9334 C.ar    1  UNL1        0.0127
     26 C          65.1941   94.3573   10.7558 C.ar    1  UNL1        0.0192
     27 N          61.0518   88.3053   10.5549 N.3     1  UNL1       -0.1847
     28 H          60.5431   87.8321   11.3016 H       1  UNL1        0.1484
     29 O          62.2978   86.5948   10.7010 O.2     1  UNL1       -0.1576
     30 S          61.5093   87.2418    9.6011 S.O2    1  UNL1        0.0390
     31 O          60.7209   87.8889    8.5013 O.2     1  UNL1       -0.1576
     32 C          61.9669   86.1783    8.6474 C.3     1  UNL1        0.1457
     33 C          61.6990   85.2832    7.4739 C.3     1  UNL1        0.0270
     34 C          63.0272   85.2314    8.1689 C.3     1  UNL1        0.0270
@<TRIPOS>BOND
     1    29    30    2
     2    30    31    2
     3    30    27    1
     4     1    27    1
     5     1     2    1
     6     2     3    1
     7     3     4    1
     8     4    17    1
     9    17    18    2
    10    17    19    2
    11    17    20    1
    12    20    21   ar
    13    21    22   ar
    14    22    23   ar
    15    23    24    1
    16    23    25   ar
    17    25    26   ar
    18     4     5    1
    19     5     6   ar
    20     6     7    1
    21     6     8   ar
    22     8     9   ar
    23     9    10   ar
    24    10    11    1
    25    10    12   ar
    26    12    13    1
    27    13    14    1
    28    15    14    1
    29    15    16    1
    30    30    32    1
    31    32    33    1
    32    33    34    1
    33    16     1    1
    34    34    32    1
    35    15     4    1
    36    26    20   ar
    37    12     5   ar
    38    27    28    1
@<TRIPOS>MOLECULE
*****
 34 38 0 0 0
SMALL
GASTEIGER

@<TRIPOS>ATOM
      1 C          63.1333   90.3491   12.9674 C.3     1  UNL1        0.0754
      2 C          63.5043   88.8988   12.8725 C.3     1  UNL1        0.0194
      3 C          62.8599   88.0262   11.8365 C.3     1  UNL1        0.0282
      4 C          61.8446   88.6039   10.8955 C.3     1  UNL1        0.1420
      5 C          61.2003   87.7312    9.8594 C.ar    1  UNL1        0.0616
      6 C          61.5712   86.2809    9.7645 C.ar    1  UNL1        0.1407
      7 F          62.5181   85.3959   10.5195 F       1  UNL1       -0.2043
      8 C          60.9268   85.4082    8.7285 C.ar    1  UNL1        0.0319
      9 C          59.9116   85.9858    7.7875 C.ar    1  UNL1        0.0351
     10 C          59.5406   87.4362    7.8824 C.ar    1  UNL1        0.1737
     11 F          58.5254   88.0139    6.9414 F       1  UNL1       -0.2010
     12 C          60.1850   88.3088    8.9184 C.ar    1  UNL1        0.1654
     13 O          59.8141   89.7592    9.0134 O.3     1  UNL1       -0.4733
     14 C          60.4584   90.6318   10.0494 C.3     1  UNL1        0.2074
     15 C          61.4737   90.0542   10.9904 C.3     1  UNL1        0.0698
     16 C          62.1181   90.9268   12.0264 C.3     1  UNL1        0.0231
     17 S          62.2155   87.1535   10.8005 S.O2    1  UNL1        0.0093
     18 O          62.8061   86.9498   10.3052 O.2     1  UNL1       -0.1684
     19 O          61.2756   86.4754   11.7526 O.2     1  UNL1       -0.1684
     20 C          62.5864   85.7032   10.7055 C.ar    1  UNL1        0.1059
     21 C          63.3616   85.2032    9.5227 C.ar    1  UNL1        0.0192
     22 C          63.7325   83.7528    9.4278 C.ar    1  UNL1        0.0127
     23 C          63.3281   82.8025   10.5156 C.ar    1  UNL1        0.0578
     24 CL         63.6990   81.3523   10.4207 Cl      1  UNL1       -0.0822
     25 C          62.5529   83.3026   11.6984 C.ar    1  UNL1        0.0127
     26 C          62.1820   84.7529   11.7934 C.ar    1  UNL1        0.0192
     27 N          63.7777   91.2218   14.0034 N.3     1  UNL1       -0.1847
     28 H          63.3052   92.1249   13.9629 H       1  UNL1        0.1484
     29 O          65.0028   92.5721   12.9192 O.2     1  UNL1       -0.1576
     30 S          65.2502   91.5003   13.9390 S.O2    1  UNL1        0.0390
     31 O          65.4975   90.4285   14.9587 O.2     1  UNL1       -0.1576
     32 C          66.7228   91.7787   13.8745 C.3     1  UNL1        0.1457
     33 C          68.0126   91.7784   13.1088 C.3     1  UNL1        0.0270
     34 C          67.9834   92.2613   14.5286 C.3     1  UNL1        0.0270
@<TRIPOS>BOND
     1    29    30    2
     2    30    31    2
     3    30    27    1
     4     1    27    1
     5     1     2    1
     6     2     3    1
     7     3     4    1
     8     4    17    1
     9    17    18    2
    10    17    19    2
    11    17    20    1
    12    20    21   ar
    13    21    22   ar
    14    22    23   ar
    15    23    24    1
    16    23    25   ar
    17    25    26   ar
    18     4     5    1
    19     5     6   ar
    20     6     7    1
    21     6     8   ar
    22     8     9   ar
    23     9    10   ar
    24    10    11    1
    25    10    12   ar
    26    12    13    1
    27    13    14    1
    28    15    14    1
    29    15    16    1
    30    30    32    1
    31    32    33    1
    32    33    34    1
    33    16     1    1
    34    34    32    1
    35    15     4    1
    36    26    20   ar
    37    12     5   ar
    38    27    28    1
@<TRIPOS>MOLECULE
*****
 34 38 0 0 0
SMALL
GASTEIGER

@<TRIPOS>ATOM
      1 C          64.0608   88.8526   14.3419 C.3     1  UNL1        0.0754
      2 C          63.5868   88.6452   12.9340 C.3     1  UNL1        0.0194
      3 C          63.2756   87.2623   12.4435 C.3     1  UNL1        0.0282
      4 C          63.4382   86.0868   13.3610 C.3     1  UNL1        0.1420
      5 C          63.1268   84.7038   12.8704 C.ar    1  UNL1        0.0616
      6 C          62.6529   84.4964   11.4625 C.ar    1  UNL1        0.1407
      7 F          62.3854   85.4148   10.3070 F       1  UNL1       -0.2043
      8 C          62.3416   83.1135   10.9719 C.ar    1  UNL1        0.0319
      9 C          62.5042   81.9379   11.8894 C.ar    1  UNL1        0.0351
     10 C          62.9782   82.1454   13.2974 C.ar    1  UNL1        0.1737
     11 F          63.1408   80.9699   14.2149 F       1  UNL1       -0.2010
     12 C          63.2895   83.5283   13.7879 C.ar    1  UNL1        0.1654
     13 O          63.7634   83.7358   15.1959 O.3     1  UNL1       -0.4733
     14 C          64.0747   85.1187   15.6864 C.3     1  UNL1        0.2074
     15 C          63.9121   86.2942   14.7689 C.3     1  UNL1        0.0698
     16 C          64.2234   87.6771   15.2594 C.3     1  UNL1        0.0231
     17 S          62.9642   85.8793   11.9530 S.O2    1  UNL1        0.0093
     18 O          63.4793   85.5761   11.4254 O.2     1  UNL1       -0.1684
     19 O          61.5399   86.3490   11.9766 O.2     1  UNL1       -0.1684
     20 C          62.4903   85.6719   10.5450 C.ar    1  UNL1        0.1059
     21 C          63.4174   85.0896    9.5197 C.ar    1  UNL1        0.0192
     22 C          62.9434   84.8822    8.1117 C.ar    1  UNL1        0.0127
     23 C          61.5423   85.2571    7.7291 C.ar    1  UNL1        0.0578
     24 CL         61.0683   85.0496    6.3212 Cl      1  UNL1       -0.0822
     25 C          60.6152   85.8393    8.7545 C.ar    1  UNL1        0.0127
     26 C          61.0891   86.0468   10.1624 C.ar    1  UNL1        0.0192
     27 N          64.3721   90.2356   14.8325 N.3     1  UNL1       -0.1847
     28 H          63.4925   90.6383   15.1557 H       1  UNL1        0.1484
     29 O          66.3561   90.8393   14.3866 O.2     1  UNL1       -0.1576
     30 S          64.9926   91.2382   13.9054 S.O2    1  UNL1        0.0390
     31 O          63.6291   91.6371   13.4242 O.2     1  UNL1       -0.1576
     32 C          65.6131   92.2409   12.9782 C.3     1  UNL1        0.1457
     33 C          65.9344   92.6984   11.5863 C.3     1  UNL1        0.0270
     34 C          66.3666   93.5202   12.7643 C.3     1  UNL1        0.0270
@<TRIPOS>BOND
     1    29    30    2
     2    30    31    2
     3    30    27    1
     4     1    27    1
     5     1     2    1
     6     2     3    1
     7     3     4    1
     8     4    17    1
     9    17    18    2
    10    17    19    2
    11    17    20    1
    12    20    21   ar
    13    21    22   ar
    14    22    23   ar
    15    23    24    1
    16    23    25   ar
    17    25    26   ar
    18     4     5    1
    19     5     6   ar
    20     6     7    1
    21     6     8   ar
    22     8     9   ar
    23     9    10   ar
    24    10    11    1
    25    10    12   ar
    26    12    13    1
    27    13    14    1
    28    15    14    1
    29    15    16    1
    30    30    32    1
    31    32    33    1
    32    33    34    1
    33    16     1    1
    34    34    32    1
    35    15     4    1
    36    26    20   ar
    37    12     5   ar
    38    27    28    1
@<TRIPOS>MOLECULE
*****
 34 38 0 0 0
SMALL
GASTEIGER

@<TRIPOS>ATOM
      1 C          57.8295   92.8150   -2.1967 C.3     1  UNL1        0.0754
      2 C          58.9208   93.2408   -3.1335 C.3     1  UNL1        0.0194
      3 C          60.2990   93.5100   -2.6062 C.3     1  UNL1        0.0282
      4 C          60.5858   93.3535   -1.1422 C.3     1  UNL1        0.1420
      5 C          61.9641   93.6227   -0.6150 C.ar    1  UNL1        0.0616
      6 C          63.0555   94.0485   -1.5517 C.ar    1  UNL1        0.1407
      7 F          63.1223   94.2975   -3.0294 F       1  UNL1       -0.2043
      8 C          64.4338   94.3178   -1.0245 C.ar    1  UNL1        0.0319
      9 C          64.7206   94.1612    0.4395 C.ar    1  UNL1        0.0351
     10 C          63.6291   93.7354    1.3762 C.ar    1  UNL1        0.1737
     11 F          63.9159   93.5789    2.8402 F       1  UNL1       -0.2010
     12 C          62.2509   93.4662    0.8490 C.ar    1  UNL1        0.1654
     13 O          61.1594   93.0404    1.7857 O.3     1  UNL1       -0.4733
     14 C          59.7812   92.7711    1.2585 C.3     1  UNL1        0.2074
     15 C          59.4944   92.9277   -0.2055 C.3     1  UNL1        0.0698
     16 C          58.1162   92.6584   -0.7328 C.3     1  UNL1        0.0231
     17 S          61.6773   93.7793   -2.0790 S.O2    1  UNL1        0.0093
     18 O          62.1949   93.2259   -2.3269 O.2     1  UNL1       -0.1684
     19 O          61.4345   95.2463   -2.2763 O.2     1  UNL1       -0.1684
     20 C          62.7687   94.2051   -3.0157 C.ar    1  UNL1        0.1059
     21 C          63.0525   95.6633   -3.2232 C.ar    1  UNL1        0.0192
     22 C          64.1440   96.0891   -4.1599 C.ar    1  UNL1        0.0127
     23 C          64.9516   95.0567   -4.8891 C.ar    1  UNL1        0.0578
     24 CL         66.0430   95.4826   -5.8258 Cl      1  UNL1       -0.0822
     25 C          64.6679   93.5985   -4.6816 C.ar    1  UNL1        0.0127
     26 C          63.5765   93.1727   -3.7449 C.ar    1  UNL1        0.0192
     27 N          56.4512   92.5457   -2.7240 N.3     1  UNL1       -0.1847
     28 H          56.0588   91.7967   -2.1535 H       1  UNL1        0.1484
     29 O          56.5721   90.7206   -3.7983 O.2     1  UNL1       -0.1576
     30 S          56.2615   92.1436   -4.1565 S.O2    1  UNL1        0.0390
     31 O          55.9508   93.5667   -4.5148 O.2     1  UNL1       -0.1576
     32 C          56.0717   91.7416   -5.5892 C.3     1  UNL1        0.1457
     33 C          55.2061   91.1767   -6.6762 C.3     1  UNL1        0.0270
     34 C          56.6088   91.6102   -6.9836 C.3     1  UNL1        0.0270
@<TRIPOS>BOND
     1    29    30    2
     2    30    31    2
     3    30    27    1
     4     1    27    1
     5     1     2    1
     6     2     3    1
     7     3     4    1
     8     4    17    1
     9    17    18    2
    10    17    19    2
    11    17    20    1
    12    20    21   ar
    13    21    22   ar
    14    22    23   ar
    15    23    24    1
    16    23    25   ar
    17    25    26   ar
    18     4     5    1
    19     5     6   ar
    20     6     7    1
    21     6     8   ar
    22     8     9   ar
    23     9    10   ar
    24    10    11    1
    25    10    12   ar
    26    12    13    1
    27    13    14    1
    28    15    14    1
    29    15    16    1
    30    30    32    1
    31    32    33    1
    32    33    34    1
    33    16     1    1
    34    34    32    1
    35    15     4    1
    36    26    20   ar
    37    12     5   ar
    38    27    28    1
@<TRIPOS>MOLECULE
*****
 34 38 0 0 0
SMALL
GASTEIGER

@<TRIPOS>ATOM
      1 C          57.8091   93.3786   -2.4180 C.3     1  UNL1        0.0754
      2 C          58.9285   93.8749   -3.2842 C.3     1  UNL1        0.0194
      3 C          60.3202   93.9665   -2.7320 C.3     1  UNL1        0.0282
      4 C          60.5923   93.5617   -1.3135 C.3     1  UNL1        0.1420
      5 C          61.9840   93.6533   -0.7613 C.ar    1  UNL1        0.0616
      6 C          63.1035   94.1495   -1.6275 C.ar    1  UNL1        0.1407
      7 F          63.1903   94.6244   -3.0477 F       1  UNL1       -0.2043
      8 C          64.4952   94.2411   -1.0753 C.ar    1  UNL1        0.0319
      9 C          64.7673   93.8364    0.3432 C.ar    1  UNL1        0.0351
     10 C          63.6477   93.3401    1.2095 C.ar    1  UNL1        0.1737
     11 F          63.9199   92.9353    2.6280 F       1  UNL1       -0.2010
     12 C          62.2561   93.2485    0.6572 C.ar    1  UNL1        0.1654
     13 O          61.1366   92.7522    1.5235 O.3     1  UNL1       -0.4733
     14 C          59.7450   92.6607    0.9713 C.3     1  UNL1        0.2074
     15 C          59.4728   93.0654   -0.4472 C.3     1  UNL1        0.0698
     16 C          58.0812   92.9739   -0.9995 C.3     1  UNL1        0.0231
     17 S          61.7119   94.0580   -2.1798 S.O2    1  UNL1        0.0093
     18 O          62.1967   93.5185   -2.5105 O.2     1  UNL1       -0.1684
     19 O          61.5579   95.5498   -2.1525 O.2     1  UNL1       -0.1684
     20 C          62.8313   94.5543   -3.0460 C.ar    1  UNL1        0.1059
     21 C          63.1752   96.0143   -3.0638 C.ar    1  UNL1        0.0192
     22 C          64.2947   96.5106   -3.9301 C.ar    1  UNL1        0.0127
     23 C          65.0704   95.5469   -4.7785 C.ar    1  UNL1        0.0578
     24 CL         66.1899   96.0433   -5.6447 Cl      1  UNL1       -0.0822
     25 C          64.7265   94.0870   -4.7606 C.ar    1  UNL1        0.0127
     26 C          63.6070   93.5907   -3.8944 C.ar    1  UNL1        0.0192
     27 N          56.4174   93.2871   -2.9702 N.3     1  UNL1       -0.1847
     28 H          56.4910   93.4240   -3.9783 H       1  UNL1        0.1484
     29 O          55.8334   95.2702   -3.4457 O.2     1  UNL1       -0.1576
     30 S          55.3537   94.2254   -2.4823 S.O2    1  UNL1        0.0390
     31 O          54.8739   93.1806   -1.5189 O.2     1  UNL1       -0.1576
     32 C          54.2899   95.1637   -1.9944 C.3     1  UNL1        0.1457
     33 C          52.9139   95.7469   -2.1223 C.3     1  UNL1        0.0270
     34 C          53.8235   96.2057   -1.0214 C.3     1  UNL1        0.0270
@<TRIPOS>BOND
     1    29    30    2
     2    30    31    2
     3    30    27    1
     4     1    27    1
     5     1     2    1
     6     2     3    1
     7     3     4    1
     8     4    17    1
     9    17    18    2
    10    17    19    2
    11    17    20    1
    12    20    21   ar
    13    21    22   ar
    14    22    23   ar
    15    23    24    1
    16    23    25   ar
    17    25    26   ar
    18     4     5    1
    19     5     6   ar
    20     6     7    1
    21     6     8   ar
    22     8     9   ar
    23     9    10   ar
    24    10    11    1
    25    10    12   ar
    26    12    13    1
    27    13    14    1
    28    15    14    1
    29    15    16    1
    30    30    32    1
    31    32    33    1
    32    33    34    1
    33    16     1    1
    34    34    32    1
    35    15     4    1
    36    26    20   ar
    37    12     5   ar
    38    27    28    1
