@<TRIPOS>MOLECULE
*****
 29 33 0 0 0
SMALL
GASTEIGER

@<TRIPOS>ATOM
      1 C          59.1972   89.1609    7.0589 C.3     1  UNL1        0.0534
      2 C          59.9546   88.5182    8.1829 C.ar    1  UNL1        0.0730
      3 N          60.5109   89.2202    9.3861 N.ar    1  UNL1       -0.2299
      4 C          61.1887   88.1965   10.2478 C.ar    1  UNL1        0.1604
      5 C          61.9133   88.3072   11.5565 C.ar    1  UNL1        0.0813
      6 C          62.5005   87.0833   12.1947 C.ar    1  UNL1        0.0365
      7 C          62.3630   85.7486   11.5241 C.ar    1  UNL1        0.0857
      8 C          61.6384   85.6379   10.2154 C.ar    1  UNL1        0.0989
      9 N          61.0512   86.8618    9.5773 N.ar    1  UNL1       -0.2906
     10 C          60.2885   87.0606    8.3011 C.ar    1  UNL1        0.0567
     11 C          59.9237   85.9898    7.3160 C.3     1  UNL1        0.0517
     12 N          62.9501   84.5246   12.1622 N.ar    1  UNL1       -0.2716
     13 C          62.7610   84.2800   13.6300 C.ar    1  UNL1        0.0830
     14 C          63.3480   83.0560   14.2682 C.ar    1  UNL1        0.0192
     15 C          64.1243   82.0766   13.4385 C.ar    1  UNL1        0.0064
     16 C          64.3135   82.3213   11.9707 C.ar    1  UNL1        0.0611
     17 C          63.7263   83.5453   11.3326 C.ar    1  UNL1        0.2649
     18 O          63.9155   83.7899    9.8648 O.2     1  UNL1       -0.2666
     19 N          62.0508   89.6420   12.2271 N.pl3   1  UNL1       -0.3282
     20 H          61.4214   89.9030   12.9377 H       1  UNL1        0.1471
     21 C          63.1473   90.5790   11.8149 C.3     1  UNL1        0.0920
     22 C          63.2839   91.2417   10.4762 C.3     1  UNL1        0.0287
     23 C          64.5206   92.0901   10.5030 C.3     1  UNL1        0.0281
     24 C          65.1484   91.9517   11.8582 C.ar    1  UNL1       -0.0245
     25 C          66.3833   92.5553   12.4588 C.ar    1  UNL1       -0.0045
     26 C          66.7693   92.2251   13.8701 C.ar    1  UNL1       -0.0003
     27 C          65.9205   91.2912   14.6809 C.ar    1  UNL1       -0.0003
     28 C          64.6857   90.6875   14.0804 C.ar    1  UNL1       -0.0030
     29 C          64.2996   91.0177   12.6690 C.ar    1  UNL1       -0.0085
@<TRIPOS>BOND
     1     1     2    1
     2     2     3   ar
     3     3     4   ar
     4     4     5   ar
     5     5    19    1
     6    21    19    1
     7    21    22    1
     8    22    23    1
     9    23    24    1
    10    24    25   ar
    11    25    26   ar
    12    26    27   ar
    13    27    28   ar
    14    28    29   ar
    15     5     6   ar
    16     6     7   ar
    17     7    12    1
    18    12    13   ar
    19    13    14   ar
    20    14    15   ar
    21    15    16   ar
    22    16    17   ar
    23    17    18    2
    24     7     8   ar
    25     8     9   ar
    26     9    10   ar
    27    10    11    1
    28    10     2   ar
    29     9     4   ar
    30    29    21    1
    31    17    12   ar
    32    29    24   ar
    33    19    20    1
@<TRIPOS>MOLECULE
*****
 29 33 0 0 0
SMALL
GASTEIGER

@<TRIPOS>ATOM
      1 C          63.2547   89.5815   16.4448 C.3     1  UNL1        0.0534
      2 C          63.5598   90.2442   15.1341 C.ar    1  UNL1        0.0730
      3 N          62.7520   90.1235   13.8759 N.ar    1  UNL1       -0.2299
      4 C          63.4192   90.9488   12.8158 C.ar    1  UNL1        0.1604
      5 C          63.0734   91.2074   11.3793 C.ar    1  UNL1        0.0813
      6 C          63.9476   92.0967   10.5458 C.ar    1  UNL1        0.0365
      7 C          65.1676   92.7274   11.1487 C.ar    1  UNL1        0.0857
      8 C          65.5135   92.4688   12.5852 C.ar    1  UNL1        0.0989
      9 N          64.6393   91.5795   13.4188 N.ar    1  UNL1       -0.2906
     10 C          64.7262   91.1441   14.8515 C.ar    1  UNL1        0.0567
     11 C          65.7922   91.5392   15.8299 C.3     1  UNL1        0.0517
     12 N          66.0419   93.6168   10.3152 N.ar    1  UNL1       -0.2716
     13 C          65.6334   95.0357   10.0509 C.ar    1  UNL1        0.0830
     14 C          66.5076   95.9251    9.2174 C.ar    1  UNL1        0.0192
     15 C          67.7904   95.3955    8.6481 C.ar    1  UNL1        0.0064
     16 C          68.1989   93.9767    8.9124 C.ar    1  UNL1        0.0611
     17 C          67.3247   93.0873    9.7459 C.ar    1  UNL1        0.2649
     18 O          67.7332   91.6684   10.0101 O.2     1  UNL1       -0.2666
     19 N          61.8533   90.5766   10.7764 N.pl3   1  UNL1       -0.3282
     20 H          61.0669   91.1297   10.5643 H       1  UNL1        0.1471
     21 C          61.8313   89.1031   10.4965 C.3     1  UNL1        0.0920
     22 C          62.6480   88.0598   11.1998 C.3     1  UNL1        0.0287
     23 C          62.3102   86.7261   10.6022 C.3     1  UNL1        0.0281
     24 C          61.2848   86.9450    9.5296 C.ar    1  UNL1       -0.0245
     25 C          60.5823   85.9966    8.6039 C.ar    1  UNL1       -0.0045
     26 C          59.5838   86.5172    7.6129 C.ar    1  UNL1       -0.0003
     27 C          59.2879   87.9862    7.5476 C.ar    1  UNL1       -0.0003
     28 C          59.9903   88.9347    8.4733 C.ar    1  UNL1       -0.0030
     29 C          60.9888   88.4141    9.4643 C.ar    1  UNL1       -0.0085
@<TRIPOS>BOND
     1     1     2    1
     2     2     3   ar
     3     3     4   ar
     4     4     5   ar
     5     5    19    1
     6    21    19    1
     7    21    22    1
     8    22    23    1
     9    23    24    1
    10    24    25   ar
    11    25    26   ar
    12    26    27   ar
    13    27    28   ar
    14    28    29   ar
    15     5     6   ar
    16     6     7   ar
    17     7    12    1
    18    12    13   ar
    19    13    14   ar
    20    14    15   ar
    21    15    16   ar
    22    16    17   ar
    23    17    18    2
    24     7     8   ar
    25     8     9   ar
    26     9    10   ar
    27    10    11    1
    28    10     2   ar
    29     9     4   ar
    30    29    21    1
    31    17    12   ar
    32    29    24   ar
    33    19    20    1
@<TRIPOS>MOLECULE
*****
 29 33 0 0 0
SMALL
GASTEIGER

@<TRIPOS>ATOM
      1 C          59.0286   89.1291    6.8980 C.3     1  UNL1        0.0534
      2 C          59.8291   88.6099    8.0555 C.ar    1  UNL1        0.0730
      3 N          60.3919   89.4314    9.1773 N.ar    1  UNL1       -0.2299
      4 C          61.1180   88.5072   10.1095 C.ar    1  UNL1        0.1604
      5 C          61.8683   88.7538   11.3847 C.ar    1  UNL1        0.0813
      6 C          62.5045   87.6080   12.1142 C.ar    1  UNL1        0.0365
      7 C          62.3904   86.2155   11.5684 C.ar    1  UNL1        0.0857
      8 C          61.6401   85.9688   10.2932 C.ar    1  UNL1        0.0989
      9 N          61.0039   87.1147    9.5637 N.ar    1  UNL1       -0.2906
     10 C          60.2073   87.1782    8.2943 C.ar    1  UNL1        0.0567
     11 C          59.8515   86.0142    7.4176 C.3     1  UNL1        0.0517
     12 N          63.0267   85.0695   12.2979 N.ar    1  UNL1       -0.2716
     13 C          62.9233   83.6788   11.7456 C.ar    1  UNL1        0.0830
     14 C          63.5594   82.5328   12.4750 C.ar    1  UNL1        0.0192
     15 C          64.2991   82.7776   13.7568 C.ar    1  UNL1        0.0064
     16 C          64.4025   84.1684   14.3092 C.ar    1  UNL1        0.0611
     17 C          63.7663   85.3144   13.5797 C.ar    1  UNL1        0.2649
     18 O          63.8697   86.7051   14.1321 O.2     1  UNL1       -0.2666
     19 N          61.9824   90.1464   11.9304 N.pl3   1  UNL1       -0.3282
     20 H          61.2534   90.7924   11.7875 H       1  UNL1        0.1471
     21 C          63.2073   90.5547   12.6939 C.3     1  UNL1        0.0920
     22 C          63.5198   90.1962   14.1165 C.3     1  UNL1        0.0287
     23 C          64.8404   90.8131   14.4707 C.3     1  UNL1        0.0281
     24 C          65.3441   91.5530   13.2670 C.ar    1  UNL1       -0.0245
     25 C          66.5914   92.3514   13.0289 C.ar    1  UNL1       -0.0045
     26 C          66.8294   92.9902   11.6928 C.ar    1  UNL1       -0.0003
     27 C          65.8200   92.8305   10.5947 C.ar    1  UNL1       -0.0003
     28 C          64.5728   92.0320   10.8327 C.ar    1  UNL1       -0.0030
     29 C          64.3348   91.3933   12.1689 C.ar    1  UNL1       -0.0085
@<TRIPOS>BOND
     1     1     2    1
     2     2     3   ar
     3     3     4   ar
     4     4     5   ar
     5     5    19    1
     6    21    19    1
     7    21    22    1
     8    22    23    1
     9    23    24    1
    10    24    25   ar
    11    25    26   ar
    12    26    27   ar
    13    27    28   ar
    14    28    29   ar
    15     5     6   ar
    16     6     7   ar
    17     7    12    1
    18    12    13   ar
    19    13    14   ar
    20    14    15   ar
    21    15    16   ar
    22    16    17   ar
    23    17    18    2
    24     7     8   ar
    25     8     9   ar
    26     9    10   ar
    27    10    11    1
    28    10     2   ar
    29     9     4   ar
    30    29    21    1
    31    17    12   ar
    32    29    24   ar
    33    19    20    1
@<TRIPOS>MOLECULE
*****
 29 33 0 0 0
SMALL
GASTEIGER

@<TRIPOS>ATOM
      1 C          66.3243   94.5546   11.1745 C.3     1  UNL1        0.0534
      2 C          65.6705   93.3198   11.7204 C.ar    1  UNL1        0.0730
      3 N          64.6899   92.4470   10.9948 N.ar    1  UNL1       -0.2299
      4 C          64.2960   91.3288   11.9138 C.ar    1  UNL1        0.1604
      5 C          63.3613   90.1686   11.7398 C.ar    1  UNL1        0.0813
      6 C          63.1637   89.1902   12.8593 C.ar    1  UNL1        0.0365
      7 C          63.9009   89.3718   14.1530 C.ar    1  UNL1        0.0857
      8 C          64.8357   90.5320   14.3270 C.ar    1  UNL1        0.0989
      9 N          65.0332   91.5105   13.2074 N.ar    1  UNL1       -0.2906
     10 C          65.8827   92.7410   13.0879 C.ar    1  UNL1        0.0567
     11 C          66.7858   93.2953   14.1496 C.3     1  UNL1        0.0517
     12 N          63.7034   88.3933   15.2726 N.ar    1  UNL1       -0.2716
     13 C          64.0601   86.9494   15.0784 C.ar    1  UNL1        0.0830
     14 C          63.8626   85.9709   16.1979 C.ar    1  UNL1        0.0192
     15 C          63.3084   86.4363   17.5119 C.ar    1  UNL1        0.0064
     16 C          62.9518   87.8803   17.7061 C.ar    1  UNL1        0.0611
     17 C          63.1493   88.8588   16.5865 C.ar    1  UNL1        0.2649
     18 O          62.7926   90.3028   16.7807 O.2     1  UNL1       -0.2666
     19 N          62.6241   89.9870   10.4461 N.pl3   1  UNL1       -0.3282
     20 H          62.4857   90.7553    9.8462 H       1  UNL1        0.1471
     21 C          62.0976   88.6347   10.0663 C.3     1  UNL1        0.0920
     22 C          62.5720   87.3195   10.6096 C.3     1  UNL1        0.0287
     23 C          61.7720   86.2321    9.9557 C.3     1  UNL1        0.0281
     24 C          60.8032   86.8753    9.0082 C.ar    1  UNL1       -0.0245
     25 C          59.7637   86.3008    8.0920 C.ar    1  UNL1       -0.0045
     26 C          58.9255   87.2111    7.2442 C.ar    1  UNL1       -0.0003
     27 C          59.1268   88.6959    7.3126 C.ar    1  UNL1       -0.0003
     28 C          60.1663   89.2705    8.2288 C.ar    1  UNL1       -0.0030
     29 C          61.0045   88.3602    9.0766 C.ar    1  UNL1       -0.0085
@<TRIPOS>BOND
     1     1     2    1
     2     2     3   ar
     3     3     4   ar
     4     4     5   ar
     5     5    19    1
     6    21    19    1
     7    21    22    1
     8    22    23    1
     9    23    24    1
    10    24    25   ar
    11    25    26   ar
    12    26    27   ar
    13    27    28   ar
    14    28    29   ar
    15     5     6   ar
    16     6     7   ar
    17     7    12    1
    18    12    13   ar
    19    13    14   ar
    20    14    15   ar
    21    15    16   ar
    22    16    17   ar
    23    17    18    2
    24     7     8   ar
    25     8     9   ar
    26     9    10   ar
    27    10    11    1
    28    10     2   ar
    29     9     4   ar
    30    29    21    1
    31    17    12   ar
    32    29    24   ar
    33    19    20    1
@<TRIPOS>MOLECULE
*****
 29 33 0 0 0
SMALL
GASTEIGER

@<TRIPOS>ATOM
      1 C          60.5540   86.3663    9.2379 C.3     1  UNL1        0.0534
      2 C          61.3978   86.8964   10.3590 C.ar    1  UNL1        0.0730
      3 N          62.0002   86.0862   11.4684 N.ar    1  UNL1       -0.2299
      4 C          62.7622   87.0190   12.3625 C.ar    1  UNL1        0.1604
      5 C          63.5588   86.7848   13.6118 C.ar    1  UNL1        0.0813
      6 C          64.2238   87.9372   14.3043 C.ar    1  UNL1        0.0365
      7 C          64.0923   89.3238   13.7476 C.ar    1  UNL1        0.0857
      8 C          63.2957   89.5580   12.4983 C.ar    1  UNL1        0.0989
      9 N          62.6307   88.4056   11.8058 N.ar    1  UNL1       -0.2906
     10 C          61.7875   88.3298   10.5676 C.ar    1  UNL1        0.0567
     11 C          61.4016   89.4848    9.6917 C.3     1  UNL1        0.0517
     12 N          64.7574   90.4763   14.4401 N.ar    1  UNL1       -0.2716
     13 C          65.9543   91.1342   13.8201 C.ar    1  UNL1        0.0830
     14 C          66.6194   92.2867   14.5126 C.ar    1  UNL1        0.0192
     15 C          66.0875   92.7812   15.8251 C.ar    1  UNL1        0.0064
     16 C          64.8905   92.1233   16.4450 C.ar    1  UNL1        0.0611
     17 C          64.2254   90.9708   15.7525 C.ar    1  UNL1        0.2649
     18 O          63.0285   90.3128   16.3725 O.2     1  UNL1       -0.2666
     19 N          63.6902   85.3981   14.1685 N.pl3   1  UNL1       -0.3282
     20 H          63.7198   85.2595   15.1428 H       1  UNL1        0.1471
     21 C          63.7767   84.2226   13.2408 C.3     1  UNL1        0.0920
     22 C          64.5972   84.1470   11.9874 C.3     1  UNL1        0.0287
     23 C          64.3854   82.7939   11.3756 C.3     1  UNL1        0.0281
     24 C          63.4341   82.0332   12.2509 C.ar    1  UNL1       -0.0245
     25 C          62.8617   80.6506   12.1472 C.ar    1  UNL1       -0.0045
     26 C          61.9132   80.1509   13.1962 C.ar    1  UNL1       -0.0003
     27 C          61.5370   81.0338   14.3490 C.ar    1  UNL1       -0.0003
     28 C          62.1093   82.4165   14.4527 C.ar    1  UNL1       -0.0030
     29 C          63.0579   82.9161   13.4036 C.ar    1  UNL1       -0.0085
@<TRIPOS>BOND
     1     1     2    1
     2     2     3   ar
     3     3     4   ar
     4     4     5   ar
     5     5    19    1
     6    21    19    1
     7    21    22    1
     8    22    23    1
     9    23    24    1
    10    24    25   ar
    11    25    26   ar
    12    26    27   ar
    13    27    28   ar
    14    28    29   ar
    15     5     6   ar
    16     6     7   ar
    17     7    12    1
    18    12    13   ar
    19    13    14   ar
    20    14    15   ar
    21    15    16   ar
    22    16    17   ar
    23    17    18    2
    24     7     8   ar
    25     8     9   ar
    26     9    10   ar
    27    10    11    1
    28    10     2   ar
    29     9     4   ar
    30    29    21    1
    31    17    12   ar
    32    29    24   ar
    33    19    20    1
@<TRIPOS>MOLECULE
*****
 29 33 0 0 0
SMALL
GASTEIGER

@<TRIPOS>ATOM
      1 C          60.9808   85.9879    9.7123 C.3     1  UNL1        0.0534
      2 C          61.8072   86.5964   10.8063 C.ar    1  UNL1        0.0730
      3 N          62.5463   85.8460   11.8743 N.ar    1  UNL1       -0.2299
      4 C          63.2355   86.8480   12.7524 C.ar    1  UNL1        0.1604
      5 C          64.1077   86.6901   13.9625 C.ar    1  UNL1        0.0813
      6 C          64.6668   87.9019   14.6473 C.ar    1  UNL1        0.0365
      7 C          64.3537   89.2715   14.1220 C.ar    1  UNL1        0.0857
      8 C          63.4814   89.4294   12.9119 C.ar    1  UNL1        0.0989
      9 N          62.9223   88.2176   12.2271 N.ar    1  UNL1       -0.2906
     10 C          62.0396   88.0622   11.0244 C.ar    1  UNL1        0.0567
     11 C          61.4865   89.1768   10.1867 C.3     1  UNL1        0.0517
     12 N          64.9128   90.4834   14.8068 N.ar    1  UNL1       -0.2716
     13 C          66.1903   91.0987   14.3176 C.ar    1  UNL1        0.0830
     14 C          66.7495   92.3105   15.0023 C.ar    1  UNL1        0.0192
     15 C          66.0310   92.9071   16.1762 C.ar    1  UNL1        0.0064
     16 C          64.7535   92.2918   16.6654 C.ar    1  UNL1        0.0611
     17 C          64.1944   91.0799   15.9806 C.ar    1  UNL1        0.2649
     18 O          62.9168   90.4646   16.4698 O.2     1  UNL1       -0.2666
     19 N          64.4208   85.3204   14.4878 N.pl3   1  UNL1       -0.3282
     20 H          65.1944   85.1859   15.0817 H       1  UNL1        0.1471
     21 C          63.5554   84.1556   14.1080 C.3     1  UNL1        0.0920
     22 C          62.4360   83.5848   14.9273 C.3     1  UNL1        0.0287
     23 C          61.8461   82.4335   14.1680 C.3     1  UNL1        0.0281
     24 C          62.6009   82.2927   12.8794 C.ar    1  UNL1       -0.0245
     25 C          62.4628   81.3330   11.7350 C.ar    1  UNL1       -0.0045
     26 C          63.3811   81.4375   10.5535 C.ar    1  UNL1       -0.0003
     27 C          64.4375   82.5018   10.5165 C.ar    1  UNL1       -0.0003
     28 C          64.5755   83.4616   11.6609 C.ar    1  UNL1       -0.0030
     29 C          63.6573   83.3571   12.8424 C.ar    1  UNL1       -0.0085
@<TRIPOS>BOND
     1     1     2    1
     2     2     3   ar
     3     3     4   ar
     4     4     5   ar
     5     5    19    1
     6    21    19    1
     7    21    22    1
     8    22    23    1
     9    23    24    1
    10    24    25   ar
    11    25    26   ar
    12    26    27   ar
    13    27    28   ar
    14    28    29   ar
    15     5     6   ar
    16     6     7   ar
    17     7    12    1
    18    12    13   ar
    19    13    14   ar
    20    14    15   ar
    21    15    16   ar
    22    16    17   ar
    23    17    18    2
    24     7     8   ar
    25     8     9   ar
    26     9    10   ar
    27    10    11    1
    28    10     2   ar
    29     9     4   ar
    30    29    21    1
    31    17    12   ar
    32    29    24   ar
    33    19    20    1
@<TRIPOS>MOLECULE
*****
 29 33 0 0 0
SMALL
GASTEIGER

@<TRIPOS>ATOM
      1 C          59.2568   86.7000    8.2939 C.3     1  UNL1        0.0534
      2 C          60.2547   87.1789    9.3063 C.ar    1  UNL1        0.0730
      3 N          60.8821   86.3490   10.3869 N.ar    1  UNL1       -0.2299
      4 C          61.8156   87.2291   11.1642 C.ar    1  UNL1        0.1604
      5 C          62.7050   86.9570   12.3410 C.ar    1  UNL1        0.0813
      6 C          63.5439   88.0586   12.9177 C.ar    1  UNL1        0.0365
      7 C          63.4934   89.4323   12.3175 C.ar    1  UNL1        0.0857
      8 C          62.6040   89.7044   11.1407 C.ar    1  UNL1        0.0989
      9 N          61.7651   88.6028   10.5640 N.ar    1  UNL1       -0.2906
     10 C          60.8005   88.5718    9.4158 C.ar    1  UNL1        0.0567
     11 C          60.4442   89.7304    8.5321 C.3     1  UNL1        0.0517
     12 N          64.3324   90.5340   12.8941 N.ar    1  UNL1       -0.2716
     13 C          64.7990   90.4549   14.3175 C.ar    1  UNL1        0.0830
     14 C          65.6379   91.5565   14.8942 C.ar    1  UNL1        0.0192
     15 C          66.0103   92.7374   14.0474 C.ar    1  UNL1        0.0064
     16 C          65.5438   92.8165   12.6240 C.ar    1  UNL1        0.0611
     17 C          64.7048   91.7148   12.0474 C.ar    1  UNL1        0.2649
     18 O          64.2382   91.7940   10.6240 O.2     1  UNL1       -0.2666
     19 N          62.7554   85.5832   12.9412 N.pl3   1  UNL1       -0.3282
     20 H          62.5937   85.4606   13.9046 H       1  UNL1        0.1471
     21 C          63.0522   84.3961   12.0736 C.3     1  UNL1        0.0920
     22 C          63.6518   84.4364   10.6992 C.3     1  UNL1        0.0287
     23 C          63.7716   83.0256   10.2041 C.3     1  UNL1        0.0281
     24 C          63.2461   82.1132   11.2725 C.ar    1  UNL1       -0.0245
     25 C          63.1150   80.6206   11.3427 C.ar    1  UNL1       -0.0045
     26 C          62.5393   79.9751   12.5681 C.ar    1  UNL1       -0.0003
     27 C          62.0946   80.8221   13.7235 C.ar    1  UNL1       -0.0003
     28 C          62.2257   82.3147   13.6533 C.ar    1  UNL1       -0.0030
     29 C          62.8015   82.9603   12.4279 C.ar    1  UNL1       -0.0085
@<TRIPOS>BOND
     1     1     2    1
     2     2     3   ar
     3     3     4   ar
     4     4     5   ar
     5     5    19    1
     6    21    19    1
     7    21    22    1
     8    22    23    1
     9    23    24    1
    10    24    25   ar
    11    25    26   ar
    12    26    27   ar
    13    27    28   ar
    14    28    29   ar
    15     5     6   ar
    16     6     7   ar
    17     7    12    1
    18    12    13   ar
    19    13    14   ar
    20    14    15   ar
    21    15    16   ar
    22    16    17   ar
    23    17    18    2
    24     7     8   ar
    25     8     9   ar
    26     9    10   ar
    27    10    11    1
    28    10     2   ar
    29     9     4   ar
    30    29    21    1
    31    17    12   ar
    32    29    24   ar
    33    19    20    1
@<TRIPOS>MOLECULE
*****
 29 33 0 0 0
SMALL
GASTEIGER

@<TRIPOS>ATOM
      1 C          66.8968   94.7250   13.5505 C.3     1  UNL1        0.0534
      2 C          66.2054   93.3949   13.6034 C.ar    1  UNL1        0.0730
      3 N          65.2971   92.8308   12.5514 N.ar    1  UNL1       -0.2299
      4 C          64.8313   91.4826   13.0156 C.ar    1  UNL1        0.1604
      5 C          63.9223   90.4652   12.3920 C.ar    1  UNL1        0.0813
      6 C          63.6338   89.1788   13.1073 C.ar    1  UNL1        0.0365
      7 C          64.2541   88.9097   14.4462 C.ar    1  UNL1        0.0857
      8 C          65.1631   89.9270   15.0698 C.ar    1  UNL1        0.0989
      9 N          65.4516   91.2135   14.3545 N.ar    1  UNL1       -0.2906
     10 C          66.3009   92.3953   14.7178 C.ar    1  UNL1        0.0567
     11 C          67.1045   92.5504   15.9748 C.3     1  UNL1        0.0517
     12 N          63.9655   87.6232   15.1616 N.ar    1  UNL1       -0.2716
     13 C          64.3478   86.3148   14.5355 C.ar    1  UNL1        0.0830
     14 C          64.0593   85.0284   15.2509 C.ar    1  UNL1        0.0192
     15 C          63.3884   85.0502   16.5924 C.ar    1  UNL1        0.0064
     16 C          63.0062   86.3586   17.2185 C.ar    1  UNL1        0.0611
     17 C          63.2948   87.6451   16.5031 C.ar    1  UNL1        0.2649
     18 O          62.9125   88.9535   17.1292 O.2     1  UNL1       -0.2666
     19 N          63.3020   90.7344   11.0530 N.pl3   1  UNL1       -0.3282
     20 H          63.7724   91.2978   10.3969 H       1  UNL1        0.1471
     21 C          61.9649   90.1452   10.7139 C.3     1  UNL1        0.0920
     22 C          60.6321   90.7961   10.9377 C.3     1  UNL1        0.0287
     23 C          59.5693   89.8548   10.4535 C.3     1  UNL1        0.0281
     24 C          60.2452   88.6221    9.9305 C.ar    1  UNL1       -0.0245
     25 C          59.7039   87.3593    9.3285 C.ar    1  UNL1       -0.0045
     26 C          60.6430   86.2761    8.8874 C.ar    1  UNL1       -0.0003
     27 C          62.1235   86.4556    9.0483 C.ar    1  UNL1       -0.0003
     28 C          62.6649   87.7183    9.6503 C.ar    1  UNL1       -0.0030
     29 C          61.7257   88.8015   10.0914 C.ar    1  UNL1       -0.0085
@<TRIPOS>BOND
     1     1     2    1
     2     2     3   ar
     3     3     4   ar
     4     4     5   ar
     5     5    19    1
     6    21    19    1
     7    21    22    1
     8    22    23    1
     9    23    24    1
    10    24    25   ar
    11    25    26   ar
    12    26    27   ar
    13    27    28   ar
    14    28    29   ar
    15     5     6   ar
    16     6     7   ar
    17     7    12    1
    18    12    13   ar
    19    13    14   ar
    20    14    15   ar
    21    15    16   ar
    22    16    17   ar
    23    17    18    2
    24     7     8   ar
    25     8     9   ar
    26     9    10   ar
    27    10    11    1
    28    10     2   ar
    29     9     4   ar
    30    29    21    1
    31    17    12   ar
    32    29    24   ar
    33    19    20    1
@<TRIPOS>MOLECULE
*****
 29 33 0 0 0
SMALL
GASTEIGER

@<TRIPOS>ATOM
      1 C          64.6223   83.4798   14.8892 C.3     1  UNL1        0.0534
      2 C          63.9768   84.4918   13.9895 C.ar    1  UNL1        0.0730
      3 N          64.0541   85.9821   14.1403 N.ar    1  UNL1       -0.2299
      4 C          63.2657   86.6024   13.0250 C.ar    1  UNL1        0.1604
      5 C          62.9890   88.0322   12.6659 C.ar    1  UNL1        0.0813
      6 C          62.1478   88.3550   11.4667 C.ar    1  UNL1        0.0365
      7 C          61.5833   87.2480   10.6266 C.ar    1  UNL1        0.0857
      8 C          61.8600   85.8181   10.9857 C.ar    1  UNL1        0.0989
      9 N          62.7013   85.4953   12.1849 N.ar    1  UNL1       -0.2906
     10 C          63.1407   84.1909   12.7810 C.ar    1  UNL1        0.0567
     11 C          62.8033   82.8254   12.2600 C.3     1  UNL1        0.0517
     12 N          60.7420   87.5708    9.4273 N.ar    1  UNL1       -0.2716
     13 C          60.1242   86.4643    8.6249 C.ar    1  UNL1        0.0830
     14 C          59.2830   86.7870    7.4256 C.ar    1  UNL1        0.0192
     15 C          59.0595   88.2162    7.0289 C.ar    1  UNL1        0.0064
     16 C          59.6774   89.3227    7.8314 C.ar    1  UNL1        0.0611
     17 C          60.5186   89.0000    9.0306 C.ar    1  UNL1        0.2649
     18 O          61.1364   90.1064    9.8331 O.2     1  UNL1       -0.2666
     19 N          63.5535   89.1393   13.5060 N.pl3   1  UNL1       -0.3282
     20 H          63.5649   89.0561   14.4869 H       1  UNL1        0.1471
     21 C          64.1008   90.3731   12.8516 C.3     1  UNL1        0.0920
     22 C          63.8138   90.8299   11.4520 C.3     1  UNL1        0.0287
     23 C          64.5667   92.1058   11.2172 C.3     1  UNL1        0.0281
     24 C          65.3191   92.4376   12.4718 C.ar    1  UNL1       -0.0245
     25 C          66.2291   93.5765   12.8249 C.ar    1  UNL1       -0.0045
     26 C          66.8512   93.6444   14.1881 C.ar    1  UNL1       -0.0003
     27 C          66.5632   92.5735   15.1982 C.ar    1  UNL1       -0.0003
     28 C          65.6532   91.4347   14.8451 C.ar    1  UNL1       -0.0030
     29 C          65.0311   91.3667   13.4819 C.ar    1  UNL1       -0.0085
@<TRIPOS>BOND
     1     1     2    1
     2     2     3   ar
     3     3     4   ar
     4     4     5   ar
     5     5    19    1
     6    21    19    1
     7    21    22    1
     8    22    23    1
     9    23    24    1
    10    24    25   ar
    11    25    26   ar
    12    26    27   ar
    13    27    28   ar
    14    28    29   ar
    15     5     6   ar
    16     6     7   ar
    17     7    12    1
    18    12    13   ar
    19    13    14   ar
    20    14    15   ar
    21    15    16   ar
    22    16    17   ar
    23    17    18    2
    24     7     8   ar
    25     8     9   ar
    26     9    10   ar
    27    10    11    1
    28    10     2   ar
    29     9     4   ar
    30    29    21    1
    31    17    12   ar
    32    29    24   ar
    33    19    20    1
