@<TRIPOS>MOLECULE
*****
 38 42 0 0 0
SMALL
GASTEIGER

@<TRIPOS>ATOM
      1 N          60.1537   89.8625    7.7693 N.am    1  UNL1       -0.2844
      2 C          60.4591   88.5600    8.4479 C.2     1  UNL1        0.3080
      3 O          59.9100   87.2789    7.8939 O.2     1  UNL1       -0.2522
      4 N          61.3136   88.5389    9.6806 N.am    1  UNL1       -0.2418
      5 C          61.9297   89.7333   10.3469 C.3     1  UNL1        0.1053
      6 C          62.6989   89.2522   11.5414 C.3     1  UNL1        0.0553
      7 C          63.0142   90.7069   11.7273 C.3     1  UNL1        0.0077
      8 C          63.5340   89.0752   12.7748 C.3     1  UNL1        0.0077
      9 C          62.5582   87.7605   11.6134 C.ar    1  UNL1        0.0735
     10 N          63.0990   86.7467   12.5775 N.ar    1  UNL1       -0.2482
     11 C          62.7837   85.2921   12.3916 C.ar    1  UNL1        0.0866
     12 C          61.9276   84.8513   11.2415 C.ar    1  UNL1        0.0206
     13 C          61.3867   85.8651   10.2774 C.ar    1  UNL1        0.0177
     14 C          61.7020   87.3197   10.4633 C.ar    1  UNL1        0.0688
     15 H          60.5141   90.7034    8.1329 H       1  UNL1        0.1513
     16 C          63.3246   84.2782   13.3558 C.ar    1  UNL1        0.0844
     17 C          63.2893   84.5519   14.8302 C.ar    1  UNL1        0.2289
     18 N          63.8301   83.5381   15.7944 N.ar    1  UNL1       -0.1893
     19 C          64.4063   82.2505   15.2842 C.ar    1  UNL1        0.2012
     20 N          64.4416   81.9768   13.8098 N.ar    1  UNL1       -0.2281
     21 C          63.9007   82.9907   12.8456 C.ar    1  UNL1        0.0663
     22 C          63.9360   82.7170   11.3712 C.3     1  UNL1        0.0406
     23 C          63.5962   81.8372   10.2048 C.3     1  UNL1        0.0063
     24 C          64.3369   83.1227    9.9839 C.3     1  UNL1        0.0063
     25 O          62.7132   85.8395   15.3404 O.3     1  UNL1       -0.4560
     26 C          63.1076   86.3537   16.6932 C.3     1  UNL1        0.2542
     27 C          59.2992   89.8836    6.5366 C.3     1  UNL1        0.1177
     28 C          60.3701   92.5880    3.1030 C.ar    1  UNL1        0.1056
     29 C          61.4313   91.7598    3.7646 C.ar    1  UNL1        0.0181
     30 C          61.0743   90.8583    4.9092 C.ar    1  UNL1       -0.0013
     31 C          59.6561   90.7851    5.3921 C.ar    1  UNL1       -0.0024
     32 C          58.5948   91.6133    4.7305 C.ar    1  UNL1       -0.0013
     33 C          58.9518   92.5147    3.5860 C.ar    1  UNL1        0.0181
     34 S          60.7269   93.4894    1.9584 S.O2    1  UNL1        0.0087
     35 O          60.0012   94.6212    2.6235 O.2     1  UNL1       -0.1686
     36 O          61.4528   92.3575    1.2934 O.2     1  UNL1       -0.1686
     37 C          62.4349   94.2869    0.1705 C.3     1  UNL1        0.0276
     38 C          61.0839   94.3908    0.8139 C.3     1  UNL1        0.1560
@<TRIPOS>BOND
     1    37    38    1
     2    38    34    1
     3    34    35    2
     4    34    36    2
     5    34    28    1
     6    28    29   ar
     7    29    30   ar
     8    30    31   ar
     9    31    27    1
    10    27     1    1
    11     1     2   am
    12     2     3    2
    13     2     4   am
    14     4     5    1
    15     5     6    1
    16     6     7    1
    17     6     8    1
    18     6     9    1
    19     9    10   ar
    20    10    11   ar
    21    11    16    1
    22    16    17   ar
    23    17    25    1
    24    25    26    1
    25    17    18   ar
    26    18    19   ar
    27    19    20   ar
    28    20    21   ar
    29    21    22    1
    30    22    23    1
    31    23    24    1
    32    11    12   ar
    33    12    13   ar
    34    13    14   ar
    35    31    32   ar
    36    32    33   ar
    37    33    28   ar
    38    14     4    1
    39    14     9   ar
    40    21    16   ar
    41    24    22    1
    42     1    15    1
@<TRIPOS>MOLECULE
*****
 38 42 0 0 0
SMALL
GASTEIGER

@<TRIPOS>ATOM
      1 N          60.1373   90.0007    7.6662 N.am    1  UNL1       -0.2844
      2 C          60.4460   88.7050    8.3563 C.2     1  UNL1        0.3080
      3 O          59.9122   87.4161    7.8053 O.2     1  UNL1       -0.2522
      4 N          61.2885   88.6984    9.5973 N.am    1  UNL1       -0.2418
      5 C          61.8889   89.9018   10.2618 C.3     1  UNL1        0.1053
      6 C          62.6500   89.4343   11.4668 C.3     1  UNL1        0.0553
      7 C          62.9522   90.8926   11.6463 C.3     1  UNL1        0.0077
      8 C          63.4743   89.2718   12.7094 C.3     1  UNL1        0.0077
      9 C          62.5200   87.9421   11.5471 C.ar    1  UNL1        0.0735
     10 N          63.0591   86.9388   12.5231 N.ar    1  UNL1       -0.2482
     11 C          62.7568   85.4806   12.3436 C.ar    1  UNL1        0.0866
     12 C          61.9154   85.0258   11.1882 C.ar    1  UNL1        0.0206
     13 C          61.3763   86.0291   10.2122 C.ar    1  UNL1        0.0177
     14 C          61.6786   87.4873   10.3917 C.ar    1  UNL1        0.0688
     15 H          60.4876   90.8467    8.0278 H       1  UNL1        0.1513
     16 C          63.2960   84.4772   13.3196 C.ar    1  UNL1        0.0844
     17 C          63.2325   83.0126   13.0016 C.ar    1  UNL1        0.2289
     18 N          63.7716   82.0092   13.9775 N.ar    1  UNL1       -0.1893
     19 C          64.3742   82.4703   15.2716 C.ar    1  UNL1        0.2012
     20 N          64.4376   83.9348   15.5896 N.ar    1  UNL1       -0.2281
     21 C          63.8985   84.9383   14.6136 C.ar    1  UNL1        0.0663
     22 C          63.9619   86.4028   14.9316 C.3     1  UNL1        0.0406
     23 C          63.4788   87.5826   15.7219 C.3     1  UNL1        0.0063
     24 C          64.5549   87.7596   14.6920 C.3     1  UNL1        0.0063
     25 O          62.6300   82.5515   11.7076 O.3     1  UNL1       -0.4560
     26 C          63.4651   81.7918   10.7200 C.3     1  UNL1        0.2542
     27 C          59.2948   90.0072    6.4251 C.3     1  UNL1        0.1177
     28 C          60.4042   92.6640    2.9667 C.ar    1  UNL1        0.1056
     29 C          58.9828   92.6066    3.4425 C.ar    1  UNL1        0.0181
     30 C          58.6130   91.7210    4.5954 C.ar    1  UNL1       -0.0013
     31 C          59.6646   90.8928    5.2723 C.ar    1  UNL1       -0.0024
     32 C          61.0860   90.9502    4.7965 C.ar    1  UNL1       -0.0013
     33 C          61.4557   91.8358    3.6437 C.ar    1  UNL1        0.0181
     34 S          60.7740   93.5496    1.8139 S.O2    1  UNL1        0.0087
     35 O          62.2275   93.3076    2.0943 O.2     1  UNL1       -0.1686
     36 O          59.3204   93.7916    1.5335 O.2     1  UNL1       -0.1686
     37 C          62.1786   95.5062    0.8399 C.3     1  UNL1        0.0276
     38 C          61.1438   94.4352    0.6611 C.3     1  UNL1        0.1560
@<TRIPOS>BOND
     1    37    38    1
     2    38    34    1
     3    34    35    2
     4    34    36    2
     5    34    28    1
     6    28    29   ar
     7    29    30   ar
     8    30    31   ar
     9    31    27    1
    10    27     1    1
    11     1     2   am
    12     2     3    2
    13     2     4   am
    14     4     5    1
    15     5     6    1
    16     6     7    1
    17     6     8    1
    18     6     9    1
    19     9    10   ar
    20    10    11   ar
    21    11    16    1
    22    16    17   ar
    23    17    25    1
    24    25    26    1
    25    17    18   ar
    26    18    19   ar
    27    19    20   ar
    28    20    21   ar
    29    21    22    1
    30    22    23    1
    31    23    24    1
    32    11    12   ar
    33    12    13   ar
    34    13    14   ar
    35    31    32   ar
    36    32    33   ar
    37    33    28   ar
    38    14     4    1
    39    14     9   ar
    40    21    16   ar
    41    24    22    1
    42     1    15    1
@<TRIPOS>MOLECULE
*****
 38 42 0 0 0
SMALL
GASTEIGER

@<TRIPOS>ATOM
      1 N          59.5499   88.0325    8.1573 N.am    1  UNL1       -0.2844
      2 C          60.2765   89.0583    8.9758 C.2     1  UNL1        0.3080
      3 O          60.0562   90.5189    8.7152 O.2     1  UNL1       -0.2522
      4 N          61.2234   88.6234   10.0549 N.am    1  UNL1       -0.2418
      5 C          61.5434   87.2064   10.4286 C.3     1  UNL1        0.1053
      6 C          62.5343   87.2365   11.5543 C.3     1  UNL1        0.0553
      7 C          62.4452   85.7418   11.4636 C.3     1  UNL1        0.0077
      8 C          63.5065   86.9540   12.6611 C.3     1  UNL1        0.0077
      9 C          62.8266   88.6720   11.8764 C.ar    1  UNL1        0.0735
     10 N          63.7258   89.3094   12.8938 N.ar    1  UNL1       -0.2482
     11 C          63.8148   90.8040   12.9844 C.ar    1  UNL1        0.0866
     12 C          63.0046   91.6612   12.0577 C.ar    1  UNL1        0.0206
     13 C          62.1054   91.0238   11.0404 C.ar    1  UNL1        0.0177
     14 C          62.0164   89.5292   10.9497 C.ar    1  UNL1        0.0688
     15 H          59.6945   87.0738    8.3284 H       1  UNL1        0.1513
     16 C          64.7141   91.4414   14.0019 C.ar    1  UNL1        0.0844
     17 C          64.3889   91.3341   15.4623 C.ar    1  UNL1        0.2289
     18 N          65.2881   91.9715   16.4797 N.ar    1  UNL1       -0.1893
     19 C          66.5125   92.7163   16.0367 C.ar    1  UNL1        0.2012
     20 N          66.8376   92.8237   14.5763 N.ar    1  UNL1       -0.2281
     21 C          65.9384   92.1862   13.5589 C.ar    1  UNL1        0.0663
     22 C          66.2635   92.2936   12.0985 C.3     1  UNL1        0.0406
     23 C          65.8653   92.6754   10.7037 C.3     1  UNL1        0.0063
     24 C          67.2249   92.0978   10.9639 C.3     1  UNL1        0.0063
     25 O          63.1645   90.5892   15.9052 O.3     1  UNL1       -0.4560
     26 C          63.2919   89.2058   16.4709 C.3     1  UNL1        0.2542
     27 C          58.6030   88.4674    7.0783 C.3     1  UNL1        0.1177
     28 C          59.7129   91.8673    4.3471 C.ar    1  UNL1        0.1056
     29 C          58.2982   91.7187    4.8231 C.ar    1  UNL1        0.0181
     30 C          57.9282   90.5854    5.7335 C.ar    1  UNL1       -0.0013
     31 C          58.9730   89.6006    6.1679 C.ar    1  UNL1       -0.0024
     32 C          60.3877   89.7492    5.6919 C.ar    1  UNL1       -0.0013
     33 C          60.7576   90.8825    4.7816 C.ar    1  UNL1        0.0181
     34 S          60.0828   93.0005    3.4367 S.O2    1  UNL1        0.0087
     35 O          60.7675   92.0360    2.5143 O.2     1  UNL1       -0.1686
     36 O          59.3981   93.9651    4.3592 O.2     1  UNL1       -0.1686
     37 C          61.5171   93.9439    1.4867 C.3     1  UNL1        0.0276
     38 C          60.4528   94.1338    2.5264 C.3     1  UNL1        0.1560
@<TRIPOS>BOND
     1    37    38    1
     2    38    34    1
     3    34    35    2
     4    34    36    2
     5    34    28    1
     6    28    29   ar
     7    29    30   ar
     8    30    31   ar
     9    31    27    1
    10    27     1    1
    11     1     2   am
    12     2     3    2
    13     2     4   am
    14     4     5    1
    15     5     6    1
    16     6     7    1
    17     6     8    1
    18     6     9    1
    19     9    10   ar
    20    10    11   ar
    21    11    16    1
    22    16    17   ar
    23    17    25    1
    24    25    26    1
    25    17    18   ar
    26    18    19   ar
    27    19    20   ar
    28    20    21   ar
    29    21    22    1
    30    22    23    1
    31    23    24    1
    32    11    12   ar
    33    12    13   ar
    34    13    14   ar
    35    31    32   ar
    36    32    33   ar
    37    33    28   ar
    38    14     4    1
    39    14     9   ar
    40    21    16   ar
    41    24    22    1
    42     1    15    1
