@<TRIPOS>MOLECULE
*****
 21 23 0 0 0
SMALL
GASTEIGER

@<TRIPOS>ATOM
      1 C          65.3607   91.4611   14.1359 C.2     1  UNL1       -0.0420
      2 C          65.1736   92.1411   12.8121 C.2     1  UNL1       -0.0240
      3 C          64.2350   91.3073   11.9911 C.ar    1  UNL1       -0.0078
      4 C          63.6875   91.4822   10.6056 C.ar    1  UNL1       -0.0006
      5 C          62.7470   90.4616   10.0366 C.ar    1  UNL1       -0.0000
      6 C          62.3540   89.2662   10.8531 C.ar    1  UNL1       -0.0003
      7 C          62.9016   89.0914   12.2386 C.ar    1  UNL1       -0.0040
      8 C          63.8421   90.1120   12.8076 C.ar    1  UNL1       -0.0184
      9 C          64.5377   90.2070   14.1331 C.3     1  UNL1        0.0480
     10 C          66.2198   91.9494   15.2643 C.3     1  UNL1        0.0394
     11 C          67.6691   91.5673   15.3232 C.3     1  UNL1        0.0765
     12 C          69.6316   92.2807   13.7773 C.3     1  UNL1        0.0897
     13 N          68.7233   92.5621   14.9375 N.3     1  UNL1       -0.2700
     14 C          68.8694   93.8384   15.7119 C.3     1  UNL1        0.0897
     15 C          65.8128   93.4289   12.3842 C.3     1  UNL1        0.0730
     16 C          66.6309   93.4791   11.1279 C.ar    1  UNL1        0.0825
     17 C          66.4566   94.6154   10.1643 C.ar    1  UNL1        0.1139
     18 N          67.2746   94.6656    8.9080 N.ar    1  UNL1       -0.2394
     19 C          68.2669   93.5795    8.6153 C.ar    1  UNL1        0.1195
     20 C          68.4412   92.4432    9.5789 C.ar    1  UNL1        0.1191
     21 N          67.6232   92.3930   10.8352 N.ar    1  UNL1       -0.2446
@<TRIPOS>BOND
     1    12    13    1
     2    13    14    1
     3    13    11    1
     4    11    10    1
     5    10     1    1
     6     1     2    2
     7     2    15    1
     8    15    16    1
     9    16    17   ar
    10    17    18   ar
    11    18    19   ar
    12    19    20   ar
    13    20    21   ar
    14     2     3    1
    15     3     4   ar
    16     4     5   ar
    17     5     6   ar
    18     6     7   ar
    19     7     8   ar
    20     8     9    1
    21     9     1    1
    22    21    16   ar
    23     8     3   ar
@<TRIPOS>MOLECULE
*****
 21 23 0 0 0
SMALL
GASTEIGER

@<TRIPOS>ATOM
      1 C          62.4309   83.7211   14.3578 C.2     1  UNL1       -0.0420
      2 C          62.8600   83.9727   12.9427 C.2     1  UNL1       -0.0240
      3 C          62.9079   82.6530   12.2312 C.ar    1  UNL1       -0.0078
      4 C          63.2637   82.2852   10.8213 C.ar    1  UNL1       -0.0006
      5 C          63.2199   80.8502   10.3867 C.ar    1  UNL1       -0.0000
      6 C          62.8204   79.7830   11.3622 C.ar    1  UNL1       -0.0003
      7 C          62.4646   80.1508   12.7722 C.ar    1  UNL1       -0.0040
      8 C          62.5084   81.5858   13.2067 C.ar    1  UNL1       -0.0184
      9 C          62.2136   82.2459   14.5209 C.3     1  UNL1        0.0480
     10 C          62.2507   84.7620   15.4228 C.3     1  UNL1        0.0394
     11 C          63.4496   85.4204   16.0384 C.3     1  UNL1        0.0765
     12 C          62.9942   87.7522   17.0899 C.3     1  UNL1        0.0897
     13 N          63.5889   86.9134   15.9977 N.3     1  UNL1       -0.2700
     14 C          64.3229   87.5676   14.8649 C.3     1  UNL1        0.0897
     15 C          63.1843   85.3092   12.3440 C.3     1  UNL1        0.0730
     16 C          62.2936   85.8942   11.2883 C.ar    1  UNL1        0.0825
     17 C          62.4843   85.5125    9.8502 C.ar    1  UNL1        0.1139
     18 N          61.5937   86.0974    8.7945 N.ar    1  UNL1       -0.2394
     19 C          60.5123   87.0641    9.1768 C.ar    1  UNL1        0.1195
     20 C          60.3216   87.4458   10.6148 C.ar    1  UNL1        0.1191
     21 N          61.2122   86.8609   11.6706 N.ar    1  UNL1       -0.2446
@<TRIPOS>BOND
     1    12    13    1
     2    13    14    1
     3    13    11    1
     4    11    10    1
     5    10     1    1
     6     1     2    2
     7     2    15    1
     8    15    16    1
     9    16    17   ar
    10    17    18   ar
    11    18    19   ar
    12    19    20   ar
    13    20    21   ar
    14     2     3    1
    15     3     4   ar
    16     4     5   ar
    17     5     6   ar
    18     6     7   ar
    19     7     8   ar
    20     8     9    1
    21     9     1    1
    22    21    16   ar
    23     8     3   ar
@<TRIPOS>MOLECULE
*****
 21 23 0 0 0
SMALL
GASTEIGER

@<TRIPOS>ATOM
      1 C          62.8433   84.5922   11.9516 C.2     1  UNL1       -0.0420
      2 C          63.3776   85.7356   12.7622 C.2     1  UNL1       -0.0240
      3 C          62.9898   87.0116   12.0757 C.ar    1  UNL1       -0.0078
      4 C          63.2415   88.4508   12.4156 C.ar    1  UNL1       -0.0006
      5 C          62.7192   89.5351   11.5205 C.ar    1  UNL1       -0.0000
      6 C          61.9452   89.1804   10.2855 C.ar    1  UNL1       -0.0003
      7 C          61.6936   87.7413    9.9456 C.ar    1  UNL1       -0.0040
      8 C          62.2159   86.6569   10.8408 C.ar    1  UNL1       -0.0184
      9 C          62.1253   85.1616   10.7641 C.3     1  UNL1        0.0480
     10 C          62.9996   83.1352   12.2722 C.3     1  UNL1        0.0394
     11 C          62.3293   82.5577   13.4834 C.3     1  UNL1        0.0765
     12 C          60.5711   80.7687   14.1605 C.3     1  UNL1        0.0897
     13 N          61.8509   81.1361   13.4697 N.3     1  UNL1       -0.2700
     14 C          62.6523   80.0818   12.7652 C.3     1  UNL1        0.0897
     15 C          64.1620   85.6228   14.0358 C.3     1  UNL1        0.0730
     16 C          63.5686   86.1029   15.3272 C.ar    1  UNL1        0.0825
     17 C          62.8164   85.1492   16.2074 C.ar    1  UNL1        0.1139
     18 N          62.2230   85.6293   17.4987 N.ar    1  UNL1       -0.2394
     19 C          62.3818   87.0631   17.9097 C.ar    1  UNL1        0.1195
     20 C          63.1340   88.0168   17.0295 C.ar    1  UNL1        0.1191
     21 N          63.7273   87.5367   15.7382 N.ar    1  UNL1       -0.2446
@<TRIPOS>BOND
     1    12    13    1
     2    13    14    1
     3    13    11    1
     4    11    10    1
     5    10     1    1
     6     1     2    2
     7     2    15    1
     8    15    16    1
     9    16    17   ar
    10    17    18   ar
    11    18    19   ar
    12    19    20   ar
    13    20    21   ar
    14     2     3    1
    15     3     4   ar
    16     4     5   ar
    17     5     6   ar
    18     6     7   ar
    19     7     8   ar
    20     8     9    1
    21     9     1    1
    22    21    16   ar
    23     8     3   ar
@<TRIPOS>MOLECULE
*****
 21 23 0 0 0
SMALL
GASTEIGER

@<TRIPOS>ATOM
      1 C          63.9330   89.6462   13.5244 C.2     1  UNL1       -0.0420
      2 C          63.8841   88.1483   13.5867 C.2     1  UNL1       -0.0240
      3 C          63.1430   87.6580   12.3782 C.ar    1  UNL1       -0.0078
      4 C          62.7878   86.2780   11.9100 C.ar    1  UNL1       -0.0006
      5 C          62.0236   86.0928   10.6327 C.ar    1  UNL1       -0.0000
      6 C          61.6144   87.2878    9.8236 C.ar    1  UNL1       -0.0003
      7 C          61.9695   88.6678   10.2917 C.ar    1  UNL1       -0.0040
      8 C          62.7338   88.8530   11.5690 C.ar    1  UNL1       -0.0184
      9 C          63.2221   90.0817   12.2775 C.3     1  UNL1        0.0480
     10 C          64.5793   90.5499   14.5322 C.3     1  UNL1        0.0394
     11 C          65.9447   91.1121   14.2687 C.3     1  UNL1        0.0765
     12 C          65.5788   92.8106   12.3370 C.3     1  UNL1        0.0897
     13 N          66.0908   92.4972   13.7117 N.3     1  UNL1       -0.2700
     14 C          66.7489   93.5688   14.5293 C.3     1  UNL1        0.0897
     15 C          64.4729   87.2911   14.6676 C.3     1  UNL1        0.0730
     16 C          64.0488   85.8586   14.8035 C.ar    1  UNL1        0.0825
     17 C          64.8895   84.7679   14.2091 C.ar    1  UNL1        0.1139
     18 N          64.4655   83.3355   14.3449 N.ar    1  UNL1       -0.2394
     19 C          63.2006   82.9940   15.0753 C.ar    1  UNL1        0.1195
     20 C          62.3598   84.0847   15.6697 C.ar    1  UNL1        0.1191
     21 N          62.7839   85.5171   15.5339 N.ar    1  UNL1       -0.2446
@<TRIPOS>BOND
     1    12    13    1
     2    13    14    1
     3    13    11    1
     4    11    10    1
     5    10     1    1
     6     1     2    2
     7     2    15    1
     8    15    16    1
     9    16    17   ar
    10    17    18   ar
    11    18    19   ar
    12    19    20   ar
    13    20    21   ar
    14     2     3    1
    15     3     4   ar
    16     4     5   ar
    17     5     6   ar
    18     6     7   ar
    19     7     8   ar
    20     8     9    1
    21     9     1    1
    22    21    16   ar
    23     8     3   ar
@<TRIPOS>MOLECULE
*****
 21 23 0 0 0
SMALL
GASTEIGER

@<TRIPOS>ATOM
      1 C          62.2933   88.7655   11.0163 C.2     1  UNL1       -0.0420
      2 C          62.9785   89.3036   12.2374 C.2     1  UNL1       -0.0240
      3 C          63.4637   88.1385   13.0480 C.ar    1  UNL1       -0.0078
      4 C          64.2066   88.0607   14.3488 C.ar    1  UNL1       -0.0006
      5 C          64.5642   86.7247   14.9295 C.ar    1  UNL1       -0.0000
      6 C          64.1789   85.4665   14.2093 C.ar    1  UNL1       -0.0003
      7 C          63.4360   85.5443   12.9086 C.ar    1  UNL1       -0.0040
      8 C          63.0784   86.8803   12.3279 C.ar    1  UNL1       -0.0184
      9 C          62.3551   87.2679   11.0723 C.3     1  UNL1        0.0480
     10 C          61.6580   89.5818    9.9300 C.3     1  UNL1        0.0394
     11 C          60.2044   89.3996    9.6077 C.3     1  UNL1        0.0765
     12 C          59.7321   87.0553    8.5921 C.3     1  UNL1        0.0897
     13 N          59.7956   88.5467    8.4435 N.3     1  UNL1       -0.2700
     14 C          59.4502   89.1849    7.1308 C.3     1  UNL1        0.0897
     15 C          63.1486   90.7524   12.5866 C.3     1  UNL1        0.0730
     16 C          64.4077   91.4731   12.2053 C.ar    1  UNL1        0.0825
     17 C          64.5657   92.0249   10.8195 C.ar    1  UNL1        0.1139
     18 N          65.8248   92.7454   10.4381 N.ar    1  UNL1       -0.2394
     19 C          66.9259   92.9142   11.4426 C.ar    1  UNL1        0.1195
     20 C          66.7679   92.3624   12.8284 C.ar    1  UNL1        0.1191
     21 N          65.5089   91.6418   13.2098 N.ar    1  UNL1       -0.2446
@<TRIPOS>BOND
     1    12    13    1
     2    13    14    1
     3    13    11    1
     4    11    10    1
     5    10     1    1
     6     1     2    2
     7     2    15    1
     8    15    16    1
     9    16    17   ar
    10    17    18   ar
    11    18    19   ar
    12    19    20   ar
    13    20    21   ar
    14     2     3    1
    15     3     4   ar
    16     4     5   ar
    17     5     6   ar
    18     6     7   ar
    19     7     8   ar
    20     8     9    1
    21     9     1    1
    22    21    16   ar
    23     8     3   ar
@<TRIPOS>MOLECULE
*****
 21 23 0 0 0
SMALL
GASTEIGER

@<TRIPOS>ATOM
      1 C          63.8138   90.7927   13.0757 C.2     1  UNL1       -0.0420
      2 C          64.0715   90.7681   14.5532 C.2     1  UNL1       -0.0240
      3 C          65.2405   91.6648   14.8349 C.ar    1  UNL1       -0.0078
      4 C          65.9417   92.0290   16.1098 C.ar    1  UNL1       -0.0006
      5 C          67.1079   92.9720   16.0813 C.ar    1  UNL1       -0.0000
      6 C          67.5728   93.5507   14.7779 C.ar    1  UNL1       -0.0003
      7 C          66.8716   93.1865   13.5029 C.ar    1  UNL1       -0.0040
      8 C          65.7054   92.2435   13.5314 C.ar    1  UNL1       -0.0184
      9 C          64.8237   91.7045   12.4442 C.3     1  UNL1        0.0480
     10 C          62.7357   90.0379   12.3560 C.3     1  UNL1        0.0394
     11 C          62.0495   90.6551   11.1735 C.3     1  UNL1        0.0765
     12 C          59.4623   90.5599   11.3914 C.3     1  UNL1        0.0897
     13 N          60.7258   90.1216   10.7118 N.3     1  UNL1       -0.2700
     14 C          60.6654   89.1500    9.5707 C.3     1  UNL1        0.0897
     15 C          63.2961   89.9845   15.5704 C.3     1  UNL1        0.0730
     16 C          63.5210   88.5080   15.7104 C.ar    1  UNL1        0.0825
     17 C          64.3902   87.7850   14.7246 C.ar    1  UNL1        0.1139
     18 N          64.6151   86.3086   14.8645 N.ar    1  UNL1       -0.2394
     19 C          63.9708   85.5552   15.9903 C.ar    1  UNL1        0.1195
     20 C          63.1017   86.2782   16.9760 C.ar    1  UNL1        0.1191
     21 N          62.8768   87.7546   16.8362 N.ar    1  UNL1       -0.2446
@<TRIPOS>BOND
     1    12    13    1
     2    13    14    1
     3    13    11    1
     4    11    10    1
     5    10     1    1
     6     1     2    2
     7     2    15    1
     8    15    16    1
     9    16    17   ar
    10    17    18   ar
    11    18    19   ar
    12    19    20   ar
    13    20    21   ar
    14     2     3    1
    15     3     4   ar
    16     4     5   ar
    17     5     6   ar
    18     6     7   ar
    19     7     8   ar
    20     8     9    1
    21     9     1    1
    22    21    16   ar
    23     8     3   ar
@<TRIPOS>MOLECULE
*****
 21 23 0 0 0
SMALL
GASTEIGER

@<TRIPOS>ATOM
      1 C          63.5540   87.7422   13.2076 C.2     1  UNL1       -0.0420
      2 C          63.0664   89.0403   12.6357 C.2     1  UNL1       -0.0240
      3 C          62.2926   88.7354   11.3874 C.ar    1  UNL1       -0.0078
      4 C          61.5807   89.6193   10.4067 C.ar    1  UNL1       -0.0006
      5 C          60.8782   89.0167    9.2264 C.ar    1  UNL1       -0.0000
      6 C          60.8876   87.5300    9.0267 C.ar    1  UNL1       -0.0003
      7 C          61.5995   86.6461   10.0074 C.ar    1  UNL1       -0.0040
      8 C          62.3020   87.2488   11.1878 C.ar    1  UNL1       -0.0184
      9 C          63.0816   86.6350   12.3127 C.3     1  UNL1        0.0480
     10 C          64.3706   87.5798   14.4553 C.3     1  UNL1        0.0394
     11 C          64.4603   86.2401   15.1239 C.3     1  UNL1        0.0765
     12 C          62.5627   84.5029   15.4868 C.3     1  UNL1        0.0897
     13 N          63.3062   85.7269   15.9331 N.3     1  UNL1       -0.2700
     14 C          62.8956   86.4377   17.1885 C.3     1  UNL1        0.0897
     15 C          63.3098   90.4040   13.2111 C.3     1  UNL1        0.0730
     16 C          64.4084   91.2649   12.6614 C.ar    1  UNL1        0.0825
     17 C          65.5734   91.6390   13.5291 C.ar    1  UNL1        0.1139
     18 N          66.6720   92.4998   12.9795 N.ar    1  UNL1       -0.2394
     19 C          66.6056   92.9864   11.5622 C.ar    1  UNL1        0.1195
     20 C          65.4407   92.6122   10.6945 C.ar    1  UNL1        0.1191
     21 N          64.3421   91.7515   11.2441 N.ar    1  UNL1       -0.2446
@<TRIPOS>BOND
     1    12    13    1
     2    13    14    1
     3    13    11    1
     4    11    10    1
     5    10     1    1
     6     1     2    2
     7     2    15    1
     8    15    16    1
     9    16    17   ar
    10    17    18   ar
    11    18    19   ar
    12    19    20   ar
    13    20    21   ar
    14     2     3    1
    15     3     4   ar
    16     4     5   ar
    17     5     6   ar
    18     6     7   ar
    19     7     8   ar
    20     8     9    1
    21     9     1    1
    22    21    16   ar
    23     8     3   ar
@<TRIPOS>MOLECULE
*****
 21 23 0 0 0
SMALL
GASTEIGER

@<TRIPOS>ATOM
      1 C          63.6988   88.1735   13.3135 C.2     1  UNL1       -0.0420
      2 C          63.2615   89.5451   12.8922 C.2     1  UNL1       -0.0240
      3 C          62.4442   89.4075   11.6419 C.ar    1  UNL1       -0.0078
      4 C          61.7530   90.4204   10.7781 C.ar    1  UNL1       -0.0006
      5 C          60.9940   89.9766    9.5629 C.ar    1  UNL1       -0.0000
      6 C          60.9262   88.5199    9.2114 C.ar    1  UNL1       -0.0003
      7 C          61.6173   87.5070   10.0753 C.ar    1  UNL1       -0.0040
      8 C          62.3764   87.9508   11.2905 C.ar    1  UNL1       -0.0184
      9 C          63.1518   87.1882   12.3236 C.3     1  UNL1        0.0480
     10 C          64.5361   87.8449   14.5139 C.3     1  UNL1        0.0394
     11 C          64.0153   86.8997   15.5556 C.3     1  UNL1        0.0765
     12 C          63.0278   88.9011   16.8857 C.3     1  UNL1        0.0897
     13 N          63.2078   87.4227   16.7064 N.3     1  UNL1       -0.2700
     14 C          62.5803   86.4675   17.6779 C.3     1  UNL1        0.0897
     15 C          63.5848   90.8289   13.5973 C.3     1  UNL1        0.0730
     16 C          64.9953   91.3392   13.6173 C.ar    1  UNL1        0.0825
     17 C          65.5224   92.1321   12.4583 C.ar    1  UNL1        0.1139
     18 N          66.9328   92.6424   12.4781 N.ar    1  UNL1       -0.2394
     19 C          67.8161   92.3596   13.6570 C.ar    1  UNL1        0.1195
     20 C          67.2889   91.5666   14.8160 C.ar    1  UNL1        0.1191
     21 N          65.8786   91.0564   14.7962 N.ar    1  UNL1       -0.2446
@<TRIPOS>BOND
     1    12    13    1
     2    13    14    1
     3    13    11    1
     4    11    10    1
     5    10     1    1
     6     1     2    2
     7     2    15    1
     8    15    16    1
     9    16    17   ar
    10    17    18   ar
    11    18    19   ar
    12    19    20   ar
    13    20    21   ar
    14     2     3    1
    15     3     4   ar
    16     4     5   ar
    17     5     6   ar
    18     6     7   ar
    19     7     8   ar
    20     8     9    1
    21     9     1    1
    22    21    16   ar
    23     8     3   ar
@<TRIPOS>MOLECULE
*****
 21 23 0 0 0
SMALL
GASTEIGER

@<TRIPOS>ATOM
      1 C          63.9256   82.9803   11.6933 C.2     1  UNL1       -0.0420
      2 C          62.8673   83.9022   12.2224 C.2     1  UNL1       -0.0240
      3 C          62.4539   84.8201   11.1104 C.ar    1  UNL1       -0.0078
      4 C          61.4502   85.9331   11.0483 C.ar    1  UNL1       -0.0006
      5 C          61.2493   86.6913    9.7698 C.ar    1  UNL1       -0.0000
      6 C          62.0521   86.3366    8.5534 C.ar    1  UNL1       -0.0003
      7 C          63.0558   85.2237    8.6155 C.ar    1  UNL1       -0.0040
      8 C          63.2567   84.4655    9.8940 C.ar    1  UNL1       -0.0184
      9 C          64.1663   83.3284   10.2542 C.3     1  UNL1        0.0480
     10 C          64.6211   81.8999   12.4673 C.3     1  UNL1        0.0394
     11 C          63.8612   81.0939   13.4786 C.3     1  UNL1        0.0765
     12 C          62.5954   79.5335   11.8316 C.3     1  UNL1        0.0897
     13 N          62.6098   80.3720   13.0754 N.3     1  UNL1       -0.2700
     14 C          61.3728   80.4884   13.9158 C.3     1  UNL1        0.0897
     15 C          62.3188   83.9057   13.6185 C.3     1  UNL1        0.0730
     16 C          62.7484   84.9644   14.5905 C.ar    1  UNL1        0.0825
     17 C          63.7622   85.9914   14.1813 C.ar    1  UNL1        0.1139
     18 N          64.1919   87.0500   15.1533 N.ar    1  UNL1       -0.2394
     19 C          63.6077   87.0815   16.5345 C.ar    1  UNL1        0.1195
     20 C          62.5939   86.0545   16.9437 C.ar    1  UNL1        0.1191
     21 N          62.1643   84.9959   15.9718 N.ar    1  UNL1       -0.2446
@<TRIPOS>BOND
     1    12    13    1
     2    13    14    1
     3    13    11    1
     4    11    10    1
     5    10     1    1
     6     1     2    2
     7     2    15    1
     8    15    16    1
     9    16    17   ar
    10    17    18   ar
    11    18    19   ar
    12    19    20   ar
    13    20    21   ar
    14     2     3    1
    15     3     4   ar
    16     4     5   ar
    17     5     6   ar
    18     6     7   ar
    19     7     8   ar
    20     8     9    1
    21     9     1    1
    22    21    16   ar
    23     8     3   ar
