@<TRIPOS>MOLECULE
*****
 38 41 0 0 0
SMALL
GASTEIGER

@<TRIPOS>ATOM
      1 C          64.2903   90.0023   13.8269 C.2     1  UNL1        0.2522
      2 O          64.1815   90.4942   15.2397 O.2     1  UNL1       -0.2699
      3 N          64.7947   90.9175   12.7508 N.am    1  UNL1       -0.2981
      4 H          64.8662   90.5947   11.8235 H       1  UNL1        0.1498
      5 C          63.1447   83.2406   13.3604 C.ar    1  UNL1        0.0509
      6 C          63.9770   83.5148   14.5778 C.ar    1  UNL1        0.0147
      7 C          64.3725   84.9220   14.9146 C.ar    1  UNL1        0.0043
      8 C          63.9359   86.0550   14.0339 C.ar    1  UNL1        0.0351
      9 C          64.3314   87.4621   14.3707 C.ar    1  UNL1        0.0141
     10 C          63.8947   88.5951   13.4901 C.ar    1  UNL1        0.1293
     11 C          63.0625   88.3210   12.2726 C.ar    1  UNL1        0.3502
     12 O          62.6258   89.4540   11.3919 O.2     1  UNL1       -0.2443
     13 O          62.6669   86.9138   11.9358 O.2     1  UNL1       -0.4209
     14 C          63.1036   85.7808   12.8165 C.ar    1  UNL1        0.1499
     15 C          62.7081   84.3736   12.4797 C.ar    1  UNL1        0.0521
     16 N          62.7492   81.8335   13.0236 N.pl3   1  UNL1       -0.3074
     17 C          60.6990   80.6709   14.1168 C.3     1  UNL1        0.0232
     18 C          62.1740   80.9419   14.0838 C.3     1  UNL1        0.0908
     19 C          62.9289   81.3179   11.6265 C.3     1  UNL1        0.0908
     20 C          63.9282   81.9621   10.7120 C.3     1  UNL1        0.0232
     21 C          65.1903   92.3247   13.0876 C.3     1  UNL1        0.1229
     22 C          65.7302   93.2282   12.0189 C.3     1  UNL1        0.1495
     23 O          65.0236   92.4155   10.9748 O.3     1  UNL1       -0.3789
     24 H          64.5421   91.6894   11.4013 H       1  UNL1        0.2108
     25 C          66.2702   94.1318   10.9502 C.ar    1  UNL1        0.0328
     26 C          65.7715   95.5419   10.8378 C.ar    1  UNL1        0.0026
     27 C          66.3114   96.4454    9.7691 C.ar    1  UNL1        0.0295
     28 C          67.3501   95.9387    8.8128 C.ar    1  UNL1        0.1424
     29 F          67.8901   96.8423    7.7441 F       1  UNL1       -0.2041
     30 C          67.8488   94.5286    8.9252 C.ar    1  UNL1        0.0590
     31 C          67.3088   93.6251    9.9939 C.ar    1  UNL1        0.1406
     32 F          67.8075   92.2148   10.1063 F       1  UNL1       -0.2043
     33 C          66.4368   94.0409   13.0630 C.3     1  UNL1        0.1619
     34 N          67.1278   93.3570   14.2052 N.ar    1  UNL1       -0.2273
     35 C          66.5440   93.1008   15.5629 C.ar    1  UNL1        0.1973
     36 N          67.5794   92.3946   16.3871 N.ar    1  UNL1       -0.2007
     37 C          68.8032   92.2143   15.5387 C.ar    1  UNL1        0.2210
     38 N          68.5242   92.8091   14.1902 N.ar    1  UNL1       -0.1451
@<TRIPOS>BOND
     1    17    18    1
     2    18    16    1
     3    16    19    1
     4    19    20    1
     5    16     5    1
     6     5     6   ar
     7     6     7   ar
     8     7     8   ar
     9     8     9   ar
    10     9    10   ar
    11    10     1    1
    12     1     2    2
    13     1     3   am
    14     3    21    1
    15    21    22    1
    16    22    23    1
    17    22    33    1
    18    33    34    1
    19    34    35   ar
    20    35    36   ar
    21    36    37   ar
    22    37    38   ar
    23    22    25    1
    24    25    26   ar
    25    26    27   ar
    26    27    28   ar
    27    28    29    1
    28    28    30   ar
    29    30    31   ar
    30    31    32    1
    31    10    11   ar
    32    11    12    2
    33    11    13   ar
    34    13    14   ar
    35    14    15   ar
    36    15     5   ar
    37    14     8   ar
    38    38    34   ar
    39    31    25   ar
    40     3     4    1
    41    23    24    1
@<TRIPOS>MOLECULE
*****
 38 41 0 0 0
SMALL
GASTEIGER

@<TRIPOS>ATOM
      1 C          63.3592   89.4770   12.7704 C.2     1  UNL1        0.2522
      2 O          62.6773   90.0627   13.9712 O.2     1  UNL1       -0.2699
      3 N          64.2529   90.3336   11.9232 N.am    1  UNL1       -0.2981
      4 H          64.7004   89.9492   11.1351 H       1  UNL1        0.1498
      5 C          63.0910   82.6302   12.2236 C.ar    1  UNL1        0.0509
      6 C          63.8815   82.9946   13.4451 C.ar    1  UNL1        0.0147
      7 C          64.0932   84.4369   13.7988 C.ar    1  UNL1        0.0043
      8 C          63.5144   85.5147   12.9309 C.ar    1  UNL1        0.0351
      9 C          63.7262   86.9569   13.2846 C.ar    1  UNL1        0.0141
     10 C          63.1474   88.0347   12.4167 C.ar    1  UNL1        0.1293
     11 C          62.3569   87.6703   11.1951 C.ar    1  UNL1        0.3502
     12 O          61.7781   88.7482   10.3272 O.2     1  UNL1       -0.2443
     13 O          62.1451   86.2281   10.8414 O.2     1  UNL1       -0.4209
     14 C          62.7239   85.1502   11.7094 C.ar    1  UNL1        0.1499
     15 C          62.5122   83.7080   11.3557 C.ar    1  UNL1        0.0521
     16 N          62.8792   81.1879   11.8699 N.pl3   1  UNL1       -0.3074
     17 C          62.7767   79.3127   10.0746 C.3     1  UNL1        0.0232
     18 C          63.1432   80.7119   10.4722 C.3     1  UNL1        0.0908
     19 C          62.4035   80.2217   12.9140 C.3     1  UNL1        0.0908
     20 C          61.3107   80.6193   13.8615 C.3     1  UNL1        0.0232
     21 C          64.4646   91.7758   12.2768 C.3     1  UNL1        0.1229
     22 C          65.6221   92.1732   13.1442 C.3     1  UNL1        0.1495
     23 O          65.5421   90.8548   13.8550 O.3     1  UNL1       -0.3789
     24 H          64.8192   90.3283   13.4794 H       1  UNL1        0.2108
     25 C          66.7796   92.5707   14.0115 C.ar    1  UNL1        0.0328
     26 C          66.5592   93.4730   15.1893 C.ar    1  UNL1        0.0026
     27 C          67.7167   93.8705   16.0565 C.ar    1  UNL1        0.0295
     28 C          69.0946   93.3656   15.7460 C.ar    1  UNL1        0.1424
     29 F          70.2522   93.7631   16.6133 F       1  UNL1       -0.2041
     30 C          69.3151   92.4633   14.5682 C.ar    1  UNL1        0.0590
     31 C          68.1575   92.0659   13.7010 C.ar    1  UNL1        0.1406
     32 F          68.3779   91.1635   12.5231 F       1  UNL1       -0.2043
     33 C          65.7020   93.4917   12.4333 C.3     1  UNL1        0.1619
     34 N          66.5111   93.6183   11.1766 N.ar    1  UNL1       -0.2273
     35 C          66.8694   94.8997   10.4840 C.ar    1  UNL1        0.1973
     36 N          67.6837   94.5591    9.2711 N.ar    1  UNL1       -0.2007
     37 C          67.8285   93.0672    9.2141 C.ar    1  UNL1        0.2210
     38 N          67.1038   92.4857   10.3917 N.ar    1  UNL1       -0.1451
@<TRIPOS>BOND
     1    17    18    1
     2    18    16    1
     3    16    19    1
     4    19    20    1
     5    16     5    1
     6     5     6   ar
     7     6     7   ar
     8     7     8   ar
     9     8     9   ar
    10     9    10   ar
    11    10     1    1
    12     1     2    2
    13     1     3   am
    14     3    21    1
    15    21    22    1
    16    22    23    1
    17    22    33    1
    18    33    34    1
    19    34    35   ar
    20    35    36   ar
    21    36    37   ar
    22    37    38   ar
    23    22    25    1
    24    25    26   ar
    25    26    27   ar
    26    27    28   ar
    27    28    29    1
    28    28    30   ar
    29    30    31   ar
    30    31    32    1
    31    10    11   ar
    32    11    12    2
    33    11    13   ar
    34    13    14   ar
    35    14    15   ar
    36    15     5   ar
    37    14     8   ar
    38    38    34   ar
    39    31    25   ar
    40     3     4    1
    41    23    24    1
