@<TRIPOS>MOLECULE
*****
 32 34 0 0 0
SMALL
GASTEIGER

@<TRIPOS>ATOM
      1 C          63.5794   86.4823   14.4274 C.ar    1  UNL1        0.0277
      2 S          63.7749   87.4092   13.2643 S.2     1  UNL1       -0.0677
      3 C          63.8015   88.8137   13.7901 C.ar    1  UNL1        0.1200
      4 C          63.6225   88.7550   15.2783 C.ar    1  UNL1        0.0887
      5 C          63.4852   87.3141   15.6721 C.ar    1  UNL1       -0.0042
      6 C          63.2883   86.7960   17.0659 C.3     1  UNL1        0.0323
      7 C          63.3208   81.9946   14.2191 C.ar    1  UNL1        0.1724
      8 C          62.7237   82.7270   15.3840 C.ar    1  UNL1        0.0401
      9 C          62.8099   84.2229   15.4534 C.ar    1  UNL1        0.0038
     10 C          63.4932   84.9864   14.3580 C.ar    1  UNL1        0.0090
     11 C          64.0903   84.2540   13.1931 C.ar    1  UNL1        0.0405
     12 C          64.0042   82.7581   13.1237 C.ar    1  UNL1        0.1724
     13 C          62.3202   79.8454   13.1563 C.3     1  UNL1        0.2526
     14 O          63.2347   80.4987   14.1497 O.3     1  UNL1       -0.4684
     15 O          64.6013   82.0257   11.9587 O.3     1  UNL1       -0.4684
     16 C          64.2053   82.3927   10.5593 C.3     1  UNL1        0.2526
     17 N          63.9765   90.0584   12.9716 N.2     1  UNL1       -0.2366
     18 C          65.1736   90.9360   13.1876 C.2     1  UNL1        0.0994
     19 C          65.3486   92.1807   12.3690 C.ar    1  UNL1        0.0192
     20 C          64.8223   92.2353   10.9653 C.ar    1  UNL1        0.0028
     21 C          64.9973   93.4801   10.1467 C.ar    1  UNL1        0.0146
     22 C          65.6984   94.6701   10.7318 C.ar    1  UNL1        0.0479
     23 C          66.2246   94.6154   12.1354 C.ar    1  UNL1        0.0146
     24 C          66.0496   93.3707   12.9540 C.ar    1  UNL1        0.0028
     25 N          65.8733   95.9148    9.9132 N.pl3   1  UNL1       -0.3047
     26 C          64.7208   96.8559    9.7236 C.3     1  UNL1        0.1122
     27 C          67.2008   96.2185    9.2843 C.3     1  UNL1        0.1070
     28 C          67.8789   95.1889    8.4299 C.3     1  UNL1        0.1267
     29 C          68.4198   93.9359    9.0524 C.1     1  UNL1        0.0750
     30 N          68.9607   92.6829    9.6748 N.1     1  UNL1       -0.1958
     31 C          63.5870   89.9306   16.2091 C.1     1  UNL1        0.1022
     32 N          63.5515   91.1063   17.1400 N.1     1  UNL1       -0.1908
@<TRIPOS>BOND
     1    13    14    1
     2    14     7    1
     3     7     8   ar
     4     8     9   ar
     5     9    10   ar
     6    10     1    1
     7     1     2   ar
     8     2     3   ar
     9     3    17    1
    10    17    18    2
    11    18    19    1
    12    19    20   ar
    13    20    21   ar
    14    21    22   ar
    15    22    25    1
    16    25    26    1
    17    25    27    1
    18    27    28    1
    19    28    29    1
    20    29    30    3
    21    22    23   ar
    22    23    24   ar
    23     3     4   ar
    24     4    31    1
    25    31    32    3
    26     4     5   ar
    27     5     6    1
    28    10    11   ar
    29    11    12   ar
    30    12    15    1
    31    15    16    1
    32    12     7   ar
    33     5     1   ar
    34    24    19   ar
@<TRIPOS>MOLECULE
*****
 32 34 0 0 0
SMALL
GASTEIGER

@<TRIPOS>ATOM
      1 C          64.0222   90.1831   12.5699 C.ar    1  UNL1        0.0277
      2 S          63.8829   88.7691   13.0507 S.2     1  UNL1       -0.0677
      3 C          62.9316   88.0591   12.1336 C.ar    1  UNL1        0.1200
      4 C          62.4829   89.0344   11.0859 C.ar    1  UNL1        0.0887
      5 C          63.1570   90.3471   11.3556 C.ar    1  UNL1       -0.0042
      6 C          62.9942   91.6032   10.5520 C.3     1  UNL1        0.0323
      7 C          66.5856   93.3730   14.4416 C.ar    1  UNL1        0.1724
      8 C          66.0165   92.2745   15.2898 C.ar    1  UNL1        0.0401
      9 C          65.1621   91.2112   14.6659 C.ar    1  UNL1        0.0038
     10 C          64.8767   91.2464   13.1938 C.ar    1  UNL1        0.0090
     11 C          65.4457   92.3448   12.3456 C.ar    1  UNL1        0.0405
     12 C          66.3002   93.4081   12.9695 C.ar    1  UNL1        0.1724
     13 C          68.6487   94.0529   15.8669 C.3     1  UNL1        0.2526
     14 O          67.4401   94.4363   15.0655 O.3     1  UNL1       -0.4684
     15 O          66.8692   94.5066   12.1212 O.3     1  UNL1       -0.4684
     16 C          66.0536   95.0931   11.0072 C.3     1  UNL1        0.2526
     17 N          62.5041   86.6257   12.2446 N.2     1  UNL1       -0.2366
     18 C          63.3865   85.6316   12.9396 C.2     1  UNL1        0.0994
     19 C          62.9590   84.1981   13.0506 C.ar    1  UNL1        0.0192
     20 C          63.0067   83.3057   11.8457 C.ar    1  UNL1        0.0028
     21 C          62.5792   81.8723   11.9568 C.ar    1  UNL1        0.0146
     22 C          62.1040   81.3311   13.2726 C.ar    1  UNL1        0.0479
     23 C          62.0563   82.2234   14.4774 C.ar    1  UNL1        0.0146
     24 C          62.4839   83.6569   14.3664 C.ar    1  UNL1        0.0028
     25 N          61.6765   79.8976   13.3836 N.pl3   1  UNL1       -0.3047
     26 C          62.3213   78.8537   12.5208 C.3     1  UNL1        0.1122
     27 C          60.6041   79.5080   14.3575 C.3     1  UNL1        0.1070
     28 C          59.1915   79.9625   14.1389 C.3     1  UNL1        0.1267
     29 C          58.2075   79.9233   15.2704 C.1     1  UNL1        0.0750
     30 N          57.2234   79.8841   16.4018 N.1     1  UNL1       -0.1958
     31 C          61.5279   88.7475    9.9654 C.1     1  UNL1        0.1022
     32 N          60.5729   88.4605    8.8448 N.1     1  UNL1       -0.1908
@<TRIPOS>BOND
     1    13    14    1
     2    14     7    1
     3     7     8   ar
     4     8     9   ar
     5     9    10   ar
     6    10     1    1
     7     1     2   ar
     8     2     3   ar
     9     3    17    1
    10    17    18    2
    11    18    19    1
    12    19    20   ar
    13    20    21   ar
    14    21    22   ar
    15    22    25    1
    16    25    26    1
    17    25    27    1
    18    27    28    1
    19    28    29    1
    20    29    30    3
    21    22    23   ar
    22    23    24   ar
    23     3     4   ar
    24     4    31    1
    25    31    32    3
    26     4     5   ar
    27     5     6    1
    28    10    11   ar
    29    11    12   ar
    30    12    15    1
    31    15    16    1
    32    12     7   ar
    33     5     1   ar
    34    24    19   ar
@<TRIPOS>MOLECULE
*****
 32 34 0 0 0
SMALL
GASTEIGER

@<TRIPOS>ATOM
      1 C          64.4586   89.8563   14.3534 C.ar    1  UNL1        0.0277
      2 S          64.4052   88.5130   13.6882 S.2     1  UNL1       -0.0677
      3 C          63.8181   87.5359   14.6632 C.ar    1  UNL1        0.1200
      4 C          63.5086   88.2754   15.9310 C.ar    1  UNL1        0.0887
      5 C          63.9045   89.7095   15.7396 C.ar    1  UNL1       -0.0042
      6 C          63.7699   90.8045   16.7559 C.3     1  UNL1        0.0323
      7 C          66.0089   93.6592   12.5137 C.ar    1  UNL1        0.1724
      8 C          65.0154   92.8169   11.7699 C.ar    1  UNL1        0.0401
      9 C          64.4987   91.5493   12.3831 C.ar    1  UNL1        0.0038
     10 C          64.9754   91.1240   13.7402 C.ar    1  UNL1        0.0090
     11 C          65.9689   91.9663   14.4841 C.ar    1  UNL1        0.0405
     12 C          66.4856   93.2339   13.8708 C.ar    1  UNL1        0.1724
     13 C          66.7961   94.9910   10.4265 C.3     1  UNL1        0.2526
     14 O          66.5257   94.9269   11.9005 O.3     1  UNL1       -0.4684
     15 O          67.4792   94.0763   14.6148 O.3     1  UNL1       -0.4684
     16 C          68.3574   93.4536   15.6592 C.3     1  UNL1        0.2526
     17 N          63.5819   86.0757   14.4141 N.2     1  UNL1       -0.2366
     18 C          63.5499   85.5501   13.0096 C.2     1  UNL1        0.0994
     19 C          63.3138   84.0899   12.7604 C.ar    1  UNL1        0.0192
     20 C          62.7200   83.2317   13.8380 C.ar    1  UNL1        0.0028
     21 C          62.4838   81.7715   13.5889 C.ar    1  UNL1        0.0146
     22 C          62.8414   81.1695   12.2623 C.ar    1  UNL1        0.0479
     23 C          63.4352   82.0277   11.1849 C.ar    1  UNL1        0.0146
     24 C          63.6714   83.4880   11.4340 C.ar    1  UNL1        0.0028
     25 N          62.6052   79.7093   12.0132 N.pl3   1  UNL1       -0.3047
     26 C          62.1737   78.8167   13.1388 C.3     1  UNL1        0.1122
     27 C          62.8006   79.1418   10.6385 C.3     1  UNL1        0.1070
     28 C          62.7925   77.6561   10.4324 C.3     1  UNL1        0.1267
     29 C          63.9412   76.9894    9.7353 C.1     1  UNL1        0.0750
     30 N          65.0900   76.3227    9.0382 N.1     1  UNL1       -0.1958
     31 C          62.9087   87.6845   17.1724 C.1     1  UNL1        0.1022
     32 N          62.3087   87.0937   18.4137 N.1     1  UNL1       -0.1908
@<TRIPOS>BOND
     1    13    14    1
     2    14     7    1
     3     7     8   ar
     4     8     9   ar
     5     9    10   ar
     6    10     1    1
     7     1     2   ar
     8     2     3   ar
     9     3    17    1
    10    17    18    2
    11    18    19    1
    12    19    20   ar
    13    20    21   ar
    14    21    22   ar
    15    22    25    1
    16    25    26    1
    17    25    27    1
    18    27    28    1
    19    28    29    1
    20    29    30    3
    21    22    23   ar
    22    23    24   ar
    23     3     4   ar
    24     4    31    1
    25    31    32    3
    26     4     5   ar
    27     5     6    1
    28    10    11   ar
    29    11    12   ar
    30    12    15    1
    31    15    16    1
    32    12     7   ar
    33     5     1   ar
    34    24    19   ar
@<TRIPOS>MOLECULE
*****
 32 34 0 0 0
SMALL
GASTEIGER

@<TRIPOS>ATOM
      1 C          65.0742   91.4458   12.9983 C.ar    1  UNL1        0.0277
      2 S          64.6394   90.1418   12.3979 S.2     1  UNL1       -0.0677
      3 C          64.0685   89.2935   13.4954 C.ar    1  UNL1        0.1200
      4 C          64.1506   90.0732   14.7742 C.ar    1  UNL1        0.0887
      5 C          64.7722   91.4033   14.4670 C.ar    1  UNL1       -0.0042
      6 C          65.0439   92.4987   15.4551 C.3     1  UNL1        0.0323
      7 C          66.9548   94.8817   10.7829 C.ar    1  UNL1        0.1724
      8 C          66.3681   95.0995   12.1461 C.ar    1  UNL1        0.0401
      9 C          65.7412   93.9542   12.8845 C.ar    1  UNL1        0.0038
     10 C          65.7011   92.5911   12.2599 C.ar    1  UNL1        0.0090
     11 C          66.2879   92.3733   10.8967 C.ar    1  UNL1        0.0405
     12 C          66.9147   93.5185   10.1582 C.ar    1  UNL1        0.1724
     13 C          66.7562   96.8555    9.1052 C.3     1  UNL1        0.2526
     14 O          67.5817   96.0269   10.0444 O.3     1  UNL1       -0.4684
     15 O          67.5015   93.3007    8.7950 O.3     1  UNL1       -0.4684
     16 C          68.7000   92.4145    8.6273 C.3     1  UNL1        0.2526
     17 N          63.5132   87.9087   13.3411 N.2     1  UNL1       -0.2366
     18 C          64.1896   86.7503   14.0123 C.2     1  UNL1        0.0994
     19 C          63.6342   85.3655   13.8581 C.ar    1  UNL1        0.0192
     20 C          63.8225   84.3558   14.9514 C.ar    1  UNL1        0.0028
     21 C          63.2671   82.9710   14.7972 C.ar    1  UNL1        0.0146
     22 C          62.5235   82.5958   13.5497 C.ar    1  UNL1        0.0479
     23 C          62.3352   83.6054   12.4564 C.ar    1  UNL1        0.0146
     24 C          62.8905   84.9903   12.6107 C.ar    1  UNL1        0.0028
     25 N          61.9681   81.2110   13.3954 N.pl3   1  UNL1       -0.3047
     26 C          60.6946   80.8318   14.0915 C.3     1  UNL1        0.1122
     27 C          62.6861   80.2053   12.5451 C.3     1  UNL1        0.1070
     28 C          62.8407   80.4426   11.0721 C.3     1  UNL1        0.1267
     29 C          63.7774   81.5048   10.5778 C.1     1  UNL1        0.0750
     30 N          64.7142   82.5669   10.0836 N.1     1  UNL1       -0.1958
     31 C          63.6917   89.6049   16.1233 C.1     1  UNL1        0.1022
     32 N          63.2329   89.1367   17.4724 N.1     1  UNL1       -0.1908
@<TRIPOS>BOND
     1    13    14    1
     2    14     7    1
     3     7     8   ar
     4     8     9   ar
     5     9    10   ar
     6    10     1    1
     7     1     2   ar
     8     2     3   ar
     9     3    17    1
    10    17    18    2
    11    18    19    1
    12    19    20   ar
    13    20    21   ar
    14    21    22   ar
    15    22    25    1
    16    25    26    1
    17    25    27    1
    18    27    28    1
    19    28    29    1
    20    29    30    3
    21    22    23   ar
    22    23    24   ar
    23     3     4   ar
    24     4    31    1
    25    31    32    3
    26     4     5   ar
    27     5     6    1
    28    10    11   ar
    29    11    12   ar
    30    12    15    1
    31    15    16    1
    32    12     7   ar
    33     5     1   ar
    34    24    19   ar
@<TRIPOS>MOLECULE
*****
 32 34 0 0 0
SMALL
GASTEIGER

@<TRIPOS>ATOM
      1 C          64.5385   90.0269   14.3542 C.ar    1  UNL1        0.0277
      2 S          64.4502   88.7003   13.6597 S.2     1  UNL1       -0.0677
      3 C          63.8459   87.7155   14.6163 C.ar    1  UNL1        0.1200
      4 C          63.5606   88.4335   15.9020 C.ar    1  UNL1        0.0887
      5 C          63.9887   89.8620   15.7400 C.ar    1  UNL1       -0.0042
      6 C          63.8851   90.9368   16.7812 C.3     1  UNL1        0.0323
      7 C          66.1668   93.8330   12.5901 C.ar    1  UNL1        0.1724
      8 C          65.1970   92.9983   11.8073 C.ar    1  UNL1        0.0401
      9 C          64.6542   91.7296   12.3954 C.ar    1  UNL1        0.0038
     10 C          65.0813   91.2956   13.7662 C.ar    1  UNL1        0.0090
     11 C          66.0511   92.1302   14.5490 C.ar    1  UNL1        0.0405
     12 C          66.5938   93.3989   13.9609 C.ar    1  UNL1        0.1724
     13 C          65.8278   95.9753   11.1599 C.3     1  UNL1        0.2526
     14 O          66.7096   95.1017   12.0021 O.3     1  UNL1       -0.4684
     15 O          67.5637   94.2336   14.7438 O.3     1  UNL1       -0.4684
     16 C          68.5439   93.5751   15.6687 C.3     1  UNL1        0.2526
     17 N          63.5745   86.2671   14.3362 N.2     1  UNL1       -0.2366
     18 C          63.8152   85.7106   12.9643 C.2     1  UNL1        0.0994
     19 C          63.5438   84.2622   12.6843 C.ar    1  UNL1        0.0192
     20 C          63.9962   83.2128   13.6561 C.ar    1  UNL1        0.0028
     21 C          63.7248   81.7644   13.3761 C.ar    1  UNL1        0.0146
     22 C          63.0010   81.3653   12.1243 C.ar    1  UNL1        0.0479
     23 C          62.5487   82.4146   11.1525 C.ar    1  UNL1        0.0146
     24 C          62.8201   83.8631   11.4325 C.ar    1  UNL1        0.0028
     25 N          62.7296   79.9169   11.8443 N.pl3   1  UNL1       -0.3047
     26 C          63.0033   79.3523   10.4818 C.3     1  UNL1        0.1122
     27 C          62.1846   79.0330   12.9267 C.3     1  UNL1        0.1070
     28 C          61.6229   79.6395   14.1783 C.3     1  UNL1        0.1267
     29 C          60.1792   80.0430   14.2337 C.1     1  UNL1        0.0750
     30 N          58.7356   80.4464   14.2890 N.1     1  UNL1       -0.1958
     31 C          62.9538   87.8291   17.1335 C.1     1  UNL1        0.1022
     32 N          62.3471   87.2248   18.3650 N.1     1  UNL1       -0.1908
@<TRIPOS>BOND
     1    13    14    1
     2    14     7    1
     3     7     8   ar
     4     8     9   ar
     5     9    10   ar
     6    10     1    1
     7     1     2   ar
     8     2     3   ar
     9     3    17    1
    10    17    18    2
    11    18    19    1
    12    19    20   ar
    13    20    21   ar
    14    21    22   ar
    15    22    25    1
    16    25    26    1
    17    25    27    1
    18    27    28    1
    19    28    29    1
    20    29    30    3
    21    22    23   ar
    22    23    24   ar
    23     3     4   ar
    24     4    31    1
    25    31    32    3
    26     4     5   ar
    27     5     6    1
    28    10    11   ar
    29    11    12   ar
    30    12    15    1
    31    15    16    1
    32    12     7   ar
    33     5     1   ar
    34    24    19   ar
@<TRIPOS>MOLECULE
*****
 32 34 0 0 0
SMALL
GASTEIGER

@<TRIPOS>ATOM
      1 C          63.3379   84.6459   13.9633 C.ar    1  UNL1        0.0277
      2 S          63.9385   85.8054   13.2253 S.2     1  UNL1       -0.0677
      3 C          63.9777   86.9789   14.1587 C.ar    1  UNL1        0.1200
      4 C          63.4013   86.5446   15.4737 C.ar    1  UNL1        0.0887
      5 C          63.0060   85.1027   15.3529 C.ar    1  UNL1       -0.0042
      6 C          62.3872   84.2648   16.4323 C.3     1  UNL1        0.0323
      7 C          62.6525   80.5209   12.3005 C.ar    1  UNL1        0.1724
      8 C          63.6130   81.4526   11.6229 C.ar    1  UNL1        0.0401
      9 C          63.8415   82.8276   12.1771 C.ar    1  UNL1        0.0038
     10 C          63.1095   83.2709   13.4090 C.ar    1  UNL1        0.0090
     11 C          62.1490   82.3391   14.0867 C.ar    1  UNL1        0.0405
     12 C          61.9205   80.9641   13.5325 C.ar    1  UNL1        0.1724
     13 C          62.8076   78.8349   10.3299 C.3     1  UNL1        0.2526
     14 O          62.4240   79.1459   11.7463 O.3     1  UNL1       -0.4684
     15 O          60.9600   80.0324   14.2102 O.3     1  UNL1       -0.4684
     16 C          59.4899   80.3302   14.1962 C.3     1  UNL1        0.2526
     17 N          64.5013   88.3466   13.8342 N.2     1  UNL1       -0.2366
     18 C          63.8036   89.1936   12.8115 C.2     1  UNL1        0.0994
     19 C          64.3272   90.5612   12.4870 C.ar    1  UNL1        0.0192
     20 C          63.9948   91.1985   11.1703 C.ar    1  UNL1        0.0028
     21 C          64.5184   92.5662   10.8457 C.ar    1  UNL1        0.0146
     22 C          65.3743   93.2965   11.8377 C.ar    1  UNL1        0.0479
     23 C          65.7066   92.6592   13.1543 C.ar    1  UNL1        0.0146
     24 C          65.1830   91.2915   13.4789 C.ar    1  UNL1        0.0028
     25 N          65.8979   94.6642   11.5132 N.pl3   1  UNL1       -0.3047
     26 C          66.4581   95.5307   12.6019 C.3     1  UNL1        0.1122
     27 C          65.8614   95.1654   10.0998 C.3     1  UNL1        0.1070
     28 C          67.0754   95.0395    9.2279 C.3     1  UNL1        0.1267
     29 C          68.0043   93.8743    9.3993 C.1     1  UNL1        0.0750
     30 N          68.9333   92.7091    9.5708 N.1     1  UNL1       -0.1958
     31 C          63.2474   87.4017   16.6951 C.1     1  UNL1        0.1022
     32 N          63.0935   88.2588   17.9164 N.1     1  UNL1       -0.1908
@<TRIPOS>BOND
     1    13    14    1
     2    14     7    1
     3     7     8   ar
     4     8     9   ar
     5     9    10   ar
     6    10     1    1
     7     1     2   ar
     8     2     3   ar
     9     3    17    1
    10    17    18    2
    11    18    19    1
    12    19    20   ar
    13    20    21   ar
    14    21    22   ar
    15    22    25    1
    16    25    26    1
    17    25    27    1
    18    27    28    1
    19    28    29    1
    20    29    30    3
    21    22    23   ar
    22    23    24   ar
    23     3     4   ar
    24     4    31    1
    25    31    32    3
    26     4     5   ar
    27     5     6    1
    28    10    11   ar
    29    11    12   ar
    30    12    15    1
    31    15    16    1
    32    12     7   ar
    33     5     1   ar
    34    24    19   ar
@<TRIPOS>MOLECULE
*****
 32 34 0 0 0
SMALL
GASTEIGER

@<TRIPOS>ATOM
      1 C          64.3090   90.5003   12.7194 C.ar    1  UNL1        0.0277
      2 S          64.0484   89.1180   13.2401 S.2     1  UNL1       -0.0677
      3 C          63.0840   88.4458   12.3084 C.ar    1  UNL1        0.1200
      4 C          62.7485   89.4128   11.2119 C.ar    1  UNL1        0.0887
      5 C          63.5056   90.6825   11.4659 C.ar    1  UNL1       -0.0042
      6 C          63.4661   91.9176   10.6157 C.3     1  UNL1        0.0323
      7 C          67.0241   93.5631   14.5896 C.ar    1  UNL1        0.1724
      8 C          66.7051   92.2951   15.3246 C.ar    1  UNL1        0.0401
      9 C          65.8001   91.2742   14.7013 C.ar    1  UNL1        0.0038
     10 C          65.2140   91.5213   13.3428 C.ar    1  UNL1        0.0090
     11 C          65.5330   92.7893   12.6078 C.ar    1  UNL1        0.0405
     12 C          66.4380   93.8102   13.2311 C.ar    1  UNL1        0.1724
     13 C          69.0483   94.1459   16.1104 C.3     1  UNL1        0.2526
     14 O          67.9291   94.5841   15.2130 O.3     1  UNL1       -0.4684
     15 O          66.7569   95.0783   12.4960 O.3     1  UNL1       -0.4684
     16 C          66.0487   95.4002   11.2136 C.3     1  UNL1        0.2526
     17 N          62.5490   87.0515   12.4486 N.2     1  UNL1       -0.2366
     18 C          63.3619   86.0032   13.1489 C.2     1  UNL1        0.0994
     19 C          62.8270   84.6089   13.2891 C.ar    1  UNL1        0.0192
     20 C          62.4780   84.0724   14.6458 C.ar    1  UNL1        0.0028
     21 C          61.9430   82.6781   14.7861 C.ar    1  UNL1        0.0146
     22 C          61.7570   81.8202   13.5697 C.ar    1  UNL1        0.0479
     23 C          62.1060   82.3567   12.2131 C.ar    1  UNL1        0.0146
     24 C          62.6410   83.7511   12.0728 C.ar    1  UNL1        0.0028
     25 N          61.2221   80.4259   13.7099 N.pl3   1  UNL1       -0.3047
     26 C          59.8302   80.2048   14.2234 C.3     1  UNL1        0.1122
     27 C          62.0790   79.2527   13.3367 C.3     1  UNL1        0.1070
     28 C          63.1731   79.4154   12.3236 C.3     1  UNL1        0.1267
     29 C          62.8699   79.2674   10.8620 C.1     1  UNL1        0.0750
     30 N          62.5668   79.1196    9.4004 N.1     1  UNL1       -0.1958
     31 C          61.8191   89.1552   10.0630 C.1     1  UNL1        0.1022
     32 N          60.8897   88.8977    8.9142 N.1     1  UNL1       -0.1908
@<TRIPOS>BOND
     1    13    14    1
     2    14     7    1
     3     7     8   ar
     4     8     9   ar
     5     9    10   ar
     6    10     1    1
     7     1     2   ar
     8     2     3   ar
     9     3    17    1
    10    17    18    2
    11    18    19    1
    12    19    20   ar
    13    20    21   ar
    14    21    22   ar
    15    22    25    1
    16    25    26    1
    17    25    27    1
    18    27    28    1
    19    28    29    1
    20    29    30    3
    21    22    23   ar
    22    23    24   ar
    23     3     4   ar
    24     4    31    1
    25    31    32    3
    26     4     5   ar
    27     5     6    1
    28    10    11   ar
    29    11    12   ar
    30    12    15    1
    31    15    16    1
    32    12     7   ar
    33     5     1   ar
    34    24    19   ar
