@<TRIPOS>MOLECULE
*****
 24 27 0 0 0
SMALL
GASTEIGER

@<TRIPOS>ATOM
      1 O          64.8993   82.4095   13.3774 O.3     1  UNL1       -0.3786
      2 C          64.1105   83.3004   12.4639 C.3     1  UNL1        0.1257
      3 C          64.6505   82.4086   11.3855 C.3     1  UNL1        0.0401
      4 C          64.1170   82.8958   10.0709 C.3     1  UNL1        0.0292
      5 C          63.2474   84.0887   10.3369 C.ar    1  UNL1       -0.0236
      6 C          62.4586   84.9795    9.4235 C.ar    1  UNL1       -0.0045
      7 C          61.6659   86.1203    9.9891 C.ar    1  UNL1       -0.0003
      8 C          61.6618   86.3704   11.4682 C.ar    1  UNL1       -0.0003
      9 C          62.4506   85.4796   12.3816 C.ar    1  UNL1       -0.0020
     10 C          63.2433   84.3387   11.8160 C.ar    1  UNL1        0.0016
     11 H          65.3498   81.7279   12.8545 H       1  UNL1        0.2111
     12 C          60.8771   87.0112    9.0757 C.ar    1  UNL1        0.0001
     13 C          60.0546   86.4145    7.9724 C.ar    1  UNL1        0.0023
     14 C          59.2659   87.3052    7.0590 C.ar    1  UNL1        0.0296
     15 C          59.2995   88.7928    7.2489 C.ar    1  UNL1        0.1401
     16 F          58.5108   89.6836    6.3355 F       1  UNL1       -0.2042
     17 C          60.1220   89.3896    8.3523 C.ar    1  UNL1        0.0296
     18 C          60.9108   88.4987    9.2657 C.ar    1  UNL1        0.0023
     19 C          63.7354   84.0059   13.7334 C.ar    1  UNL1        0.0087
     20 C          62.5205   83.5747   14.5003 C.ar    1  UNL1        0.0190
     21 C          62.1455   84.2803   15.7698 C.ar    1  UNL1        0.0986
     22 N          62.9853   85.4171   16.2724 N.ar    1  UNL1       -0.2423
     23 C          64.2002   85.8483   15.5054 C.ar    1  UNL1        0.0986
     24 C          64.5753   85.1427   14.2360 C.ar    1  UNL1        0.0190
@<TRIPOS>BOND
     1     1     2    1
     2     2    19    1
     3    19    20   ar
     4    20    21   ar
     5    21    22   ar
     6    22    23   ar
     7    23    24   ar
     8     2     3    1
     9     3     4    1
    10     4     5    1
    11     5     6   ar
    12     6     7   ar
    13     7    12    1
    14    12    13   ar
    15    13    14   ar
    16    14    15   ar
    17    15    16    1
    18    15    17   ar
    19    17    18   ar
    20     7     8   ar
    21     8     9   ar
    22     9    10   ar
    23    10     2    1
    24    24    19   ar
    25    10     5   ar
    26    18    12   ar
    27     1    11    1
@<TRIPOS>MOLECULE
*****
 24 27 0 0 0
SMALL
GASTEIGER

@<TRIPOS>ATOM
      1 O          67.2233   93.4648   13.8710 O.3     1  UNL1       -0.3786
      2 C          66.1664   92.6002   13.2500 C.3     1  UNL1        0.1257
      3 C          66.0897   91.9850   14.6158 C.3     1  UNL1        0.0401
      4 C          65.0477   90.9066   14.5806 C.3     1  UNL1        0.0292
      5 C          64.4803   90.8553   13.1930 C.ar    1  UNL1       -0.0236
      6 C          63.4235   89.9908   12.5721 C.ar    1  UNL1       -0.0045
      7 C          63.0580   90.1729   11.1288 C.ar    1  UNL1       -0.0003
      8 C          63.7494   91.2196   10.3064 C.ar    1  UNL1       -0.0003
      9 C          64.8063   92.0842   10.9273 C.ar    1  UNL1       -0.0020
     10 C          65.1717   91.9020   12.3706 C.ar    1  UNL1        0.0016
     11 H          67.3364   93.2185   14.8023 H       1  UNL1        0.2111
     12 C          62.0011   89.3084   10.5078 C.ar    1  UNL1        0.0001
     13 C          61.0280   89.8985    9.5307 C.ar    1  UNL1        0.0023
     14 C          59.9712   89.0340    8.9097 C.ar    1  UNL1        0.0296
     15 C          59.8874   87.5793    9.2659 C.ar    1  UNL1        0.1401
     16 F          58.8305   86.7148    8.6449 F       1  UNL1       -0.2042
     17 C          60.8605   86.9891   10.2430 C.ar    1  UNL1        0.0296
     18 C          61.9174   87.8537   10.8640 C.ar    1  UNL1        0.0023
     19 C          66.4640   93.3961   12.0139 C.ar    1  UNL1        0.0087
     20 C          65.9755   94.8095   11.8963 C.ar    1  UNL1        0.0190
     21 C          66.2732   95.6055   10.6602 C.ar    1  UNL1        0.0986
     22 N          67.0592   94.9881    9.5417 N.ar    1  UNL1       -0.2423
     23 C          67.5477   93.5747    9.6594 C.ar    1  UNL1        0.0986
     24 C          67.2501   92.7788   10.8954 C.ar    1  UNL1        0.0190
@<TRIPOS>BOND
     1     1     2    1
     2     2    19    1
     3    19    20   ar
     4    20    21   ar
     5    21    22   ar
     6    22    23   ar
     7    23    24   ar
     8     2     3    1
     9     3     4    1
    10     4     5    1
    11     5     6   ar
    12     6     7   ar
    13     7    12    1
    14    12    13   ar
    15    13    14   ar
    16    14    15   ar
    17    15    16    1
    18    15    17   ar
    19    17    18   ar
    20     7     8   ar
    21     8     9   ar
    22     9    10   ar
    23    10     2    1
    24    24    19   ar
    25    10     5   ar
    26    18    12   ar
    27     1    11    1
@<TRIPOS>MOLECULE
*****
 24 27 0 0 0
SMALL
GASTEIGER

@<TRIPOS>ATOM
      1 O          64.8621   84.4532   15.3782 O.3     1  UNL1       -0.3786
      2 C          64.1092   85.1077   14.2580 C.3     1  UNL1        0.1257
      3 C          64.6770   86.3744   14.8265 C.3     1  UNL1        0.0401
      4 C          64.1892   87.5183   13.9878 C.3     1  UNL1        0.0292
      5 C          63.3200   86.9587   12.9009 C.ar    1  UNL1       -0.0236
      6 C          62.5671   87.6132   11.7808 C.ar    1  UNL1       -0.0045
      7 C          61.7649   86.7779   10.8276 C.ar    1  UNL1       -0.0003
      8 C          61.7155   85.2880   10.9946 C.ar    1  UNL1       -0.0003
      9 C          62.4683   84.6335   12.1147 C.ar    1  UNL1       -0.0020
     10 C          63.2706   85.4688   13.0679 C.ar    1  UNL1        0.0016
     11 H          65.3242   85.1306   15.8964 H       1  UNL1        0.2111
     12 C          61.0120   87.4324    9.7074 C.ar    1  UNL1        0.0001
     13 C          60.2667   86.5922    8.7131 C.ar    1  UNL1        0.0023
     14 C          59.5139   87.2467    7.5929 C.ar    1  UNL1        0.0296
     15 C          59.5062   88.7414    7.4670 C.ar    1  UNL1        0.1401
     16 F          58.7534   89.3958    6.3468 F       1  UNL1       -0.2042
     17 C          60.2515   89.5816    8.4613 C.ar    1  UNL1        0.0296
     18 C          61.0044   88.9271    9.5815 C.ar    1  UNL1        0.0023
     19 C          63.6989   83.7042   13.9236 C.ar    1  UNL1        0.0087
     20 C          64.4660   82.9225   12.8987 C.ar    1  UNL1        0.0190
     21 C          64.0556   81.5190   12.5643 C.ar    1  UNL1        0.0986
     22 N          62.8781   80.8972   13.2550 N.ar    1  UNL1       -0.2423
     23 C          62.1110   81.6789   14.2799 C.ar    1  UNL1        0.0986
     24 C          62.5214   83.0824   14.6143 C.ar    1  UNL1        0.0190
@<TRIPOS>BOND
     1     1     2    1
     2     2    19    1
     3    19    20   ar
     4    20    21   ar
     5    21    22   ar
     6    22    23   ar
     7    23    24   ar
     8     2     3    1
     9     3     4    1
    10     4     5    1
    11     5     6   ar
    12     6     7   ar
    13     7    12    1
    14    12    13   ar
    15    13    14   ar
    16    14    15   ar
    17    15    16    1
    18    15    17   ar
    19    17    18   ar
    20     7     8   ar
    21     8     9   ar
    22     9    10   ar
    23    10     2    1
    24    24    19   ar
    25    10     5   ar
    26    18    12   ar
    27     1    11    1
@<TRIPOS>MOLECULE
*****
 24 27 0 0 0
SMALL
GASTEIGER

@<TRIPOS>ATOM
      1 O          63.4684   90.9010   13.5093 O.3     1  UNL1       -0.3786
      2 C          63.4049   89.4185   13.2897 C.3     1  UNL1        0.1257
      3 C          64.2670   89.3587   14.5158 C.3     1  UNL1        0.0401
      4 C          64.5589   87.9165   14.8072 C.3     1  UNL1        0.0292
      5 C          63.8772   87.0850   13.7613 C.ar    1  UNL1       -0.0236
      6 C          63.8137   85.6026   13.5418 C.ar    1  UNL1       -0.0045
      7 C          63.0370   85.0484   12.3844 C.ar    1  UNL1       -0.0003
      8 C          62.3238   85.9766   11.4465 C.ar    1  UNL1       -0.0003
      9 C          62.3873   87.4591   11.6661 C.ar    1  UNL1       -0.0020
     10 C          63.1640   88.0133   12.8234 C.ar    1  UNL1        0.0016
     11 H          64.0065   91.0889   14.2941 H       1  UNL1        0.2111
     12 C          62.9735   83.5658   12.1649 C.ar    1  UNL1        0.0001
     13 C          62.4018   82.6742   13.2270 C.ar    1  UNL1        0.0023
     14 C          62.3383   81.1917   13.0075 C.ar    1  UNL1        0.0296
     15 C          62.8465   80.6008   11.7258 C.ar    1  UNL1        0.1401
     16 F          62.7830   79.1184   11.5063 F       1  UNL1       -0.2042
     17 C          63.4183   81.4925   10.6637 C.ar    1  UNL1        0.0296
     18 C          63.4818   82.9750   10.8833 C.ar    1  UNL1        0.0023
     19 C          62.5561   89.7882   12.1096 C.ar    1  UNL1        0.0087
     20 C          63.2025   90.1673   10.8101 C.ar    1  UNL1        0.0190
     21 C          62.3536   90.5371    9.6300 C.ar    1  UNL1        0.0986
     22 N          60.8583   90.5277    9.7493 N.ar    1  UNL1       -0.2423
     23 C          60.2120   90.1486   11.0487 C.ar    1  UNL1        0.0986
     24 C          61.0608   89.7789   12.2288 C.ar    1  UNL1        0.0190
@<TRIPOS>BOND
     1     1     2    1
     2     2    19    1
     3    19    20   ar
     4    20    21   ar
     5    21    22   ar
     6    22    23   ar
     7    23    24   ar
     8     2     3    1
     9     3     4    1
    10     4     5    1
    11     5     6   ar
    12     6     7   ar
    13     7    12    1
    14    12    13   ar
    15    13    14   ar
    16    14    15   ar
    17    15    16    1
    18    15    17   ar
    19    17    18   ar
    20     7     8   ar
    21     8     9   ar
    22     9    10   ar
    23    10     2    1
    24    24    19   ar
    25    10     5   ar
    26    18    12   ar
    27     1    11    1
@<TRIPOS>MOLECULE
*****
 24 27 0 0 0
SMALL
GASTEIGER

@<TRIPOS>ATOM
      1 O          61.6377   91.1448   10.0128 O.3     1  UNL1       -0.3786
      2 C          61.8235   89.7277   10.4681 C.3     1  UNL1        0.1257
      3 C          60.8632   89.4117    9.3599 C.3     1  UNL1        0.0401
      4 C          60.6482   87.9274    9.3421 C.3     1  UNL1        0.0292
      5 C          61.4756   87.3259   10.4393 C.ar    1  UNL1       -0.0236
      6 C          61.6614   85.9088   10.8945 C.ar    1  UNL1       -0.0045
      7 C          62.5735   85.6044   12.0457 C.ar    1  UNL1       -0.0003
      8 C          63.2999   86.7171   12.7416 C.ar    1  UNL1       -0.0003
      9 C          63.1141   88.1341   12.2863 C.ar    1  UNL1       -0.0020
     10 C          62.2020   88.4386   11.1352 C.ar    1  UNL1        0.0016
     11 H          61.0208   91.1658    9.2645 H       1  UNL1        0.2111
     12 C          62.7594   84.1872   12.5010 C.ar    1  UNL1        0.0001
     13 C          62.7094   83.8566   13.9632 C.ar    1  UNL1        0.0023
     14 C          62.8952   82.4396   14.4185 C.ar    1  UNL1        0.0296
     15 C          63.1310   81.3530   13.4116 C.ar    1  UNL1        0.1401
     16 F          63.3169   79.9359   13.8669 F       1  UNL1       -0.2042
     17 C          63.1810   81.6836   11.9493 C.ar    1  UNL1        0.0296
     18 C          62.9952   83.1008   11.4940 C.ar    1  UNL1        0.0023
     19 C          62.7449   90.3399   11.4811 C.ar    1  UNL1        0.0087
     20 C          62.4814   90.1508   12.9457 C.ar    1  UNL1        0.0190
     21 C          63.4029   90.7630   13.9587 C.ar    1  UNL1        0.0986
     22 N          64.5878   91.5643   13.5071 N.ar    1  UNL1       -0.2423
     23 C          64.8513   91.7534   12.0426 C.ar    1  UNL1        0.0986
     24 C          63.9299   91.1412   11.0296 C.ar    1  UNL1        0.0190
@<TRIPOS>BOND
     1     1     2    1
     2     2    19    1
     3    19    20   ar
     4    20    21   ar
     5    21    22   ar
     6    22    23   ar
     7    23    24   ar
     8     2     3    1
     9     3     4    1
    10     4     5    1
    11     5     6   ar
    12     6     7   ar
    13     7    12    1
    14    12    13   ar
    15    13    14   ar
    16    14    15   ar
    17    15    16    1
    18    15    17   ar
    19    17    18   ar
    20     7     8   ar
    21     8     9   ar
    22     9    10   ar
    23    10     2    1
    24    24    19   ar
    25    10     5   ar
    26    18    12   ar
    27     1    11    1
@<TRIPOS>MOLECULE
*****
 24 27 0 0 0
SMALL
GASTEIGER

@<TRIPOS>ATOM
      1 O          62.9905   91.5982   11.3080 O.3     1  UNL1       -0.3786
      2 C          63.0049   90.1309   11.6194 C.3     1  UNL1        0.1257
      3 C          62.2435   90.0106   10.3326 C.3     1  UNL1        0.0401
      4 C          61.9460   88.5583   10.1041 C.3     1  UNL1        0.0292
      5 C          62.5234   87.7810   11.2497 C.ar    1  UNL1       -0.0236
      6 C          62.5378   86.3137   11.5611 C.ar    1  UNL1       -0.0045
      7 C          63.2066   85.8184   12.8089 C.ar    1  UNL1       -0.0003
      8 C          63.8611   86.7903   13.7455 C.ar    1  UNL1       -0.0003
      9 C          63.8467   88.2576   13.4341 C.ar    1  UNL1       -0.0020
     10 C          63.1778   88.7529   12.1862 C.ar    1  UNL1        0.0016
     11 H          62.5215   91.7467   10.4720 H       1  UNL1        0.2111
     12 C          63.2211   84.3511   13.1204 C.ar    1  UNL1        0.0001
     13 C          64.1237   83.4306   12.3536 C.ar    1  UNL1        0.0023
     14 C          64.1381   81.9633   12.6650 C.ar    1  UNL1        0.0296
     15 C          63.2499   81.4166   13.7431 C.ar    1  UNL1        0.1401
     16 F          63.2644   79.9494   14.0545 F       1  UNL1       -0.2042
     17 C          62.3474   82.3372   14.5099 C.ar    1  UNL1        0.0296
     18 C          62.3329   83.8045   14.1985 C.ar    1  UNL1        0.0023
     19 C          63.7632   90.5579   12.8411 C.ar    1  UNL1        0.0087
     20 C          65.1341   91.1510   12.7037 C.ar    1  UNL1        0.0190
     21 C          65.8925   91.5780   13.9255 C.ar    1  UNL1        0.0986
     22 N          65.2799   91.4119   15.2846 N.ar    1  UNL1       -0.2423
     23 C          63.9090   90.8188   15.4220 C.ar    1  UNL1        0.0986
     24 C          63.1507   90.3918   14.2003 C.ar    1  UNL1        0.0190
@<TRIPOS>BOND
     1     1     2    1
     2     2    19    1
     3    19    20   ar
     4    20    21   ar
     5    21    22   ar
     6    22    23   ar
     7    23    24   ar
     8     2     3    1
     9     3     4    1
    10     4     5    1
    11     5     6   ar
    12     6     7   ar
    13     7    12    1
    14    12    13   ar
    15    13    14   ar
    16    14    15   ar
    17    15    16    1
    18    15    17   ar
    19    17    18   ar
    20     7     8   ar
    21     8     9   ar
    22     9    10   ar
    23    10     2    1
    24    24    19   ar
    25    10     5   ar
    26    18    12   ar
    27     1    11    1
@<TRIPOS>MOLECULE
*****
 24 27 0 0 0
SMALL
GASTEIGER

@<TRIPOS>ATOM
      1 O          62.8322   82.8346   11.3396 O.3     1  UNL1       -0.3786
      2 C          63.1245   84.1112   12.0711 C.3     1  UNL1        0.1257
      3 C          63.5614   83.1944   13.1750 C.3     1  UNL1        0.0401
      4 C          64.0196   84.0403   14.3259 C.3     1  UNL1        0.0292
      5 C          63.8658   85.4798   13.9333 C.ar    1  UNL1       -0.0236
      6 C          64.1580   86.7563   14.6647 C.ar    1  UNL1       -0.0045
      7 C          63.8971   88.0767   14.0026 C.ar    1  UNL1       -0.0003
      8 C          63.3439   88.1205   12.6090 C.ar    1  UNL1       -0.0003
      9 C          63.0516   86.8440   11.8776 C.ar    1  UNL1       -0.0020
     10 C          63.3126   85.5236   12.5397 C.ar    1  UNL1        0.0016
     11 H          63.0558   82.0792   11.9056 H       1  UNL1        0.2111
     12 C          64.1893   89.3533   14.7340 C.ar    1  UNL1        0.0001
     13 C          63.4075   89.7089   15.9638 C.ar    1  UNL1        0.0023
     14 C          63.6997   90.9854   16.6953 C.ar    1  UNL1        0.0296
     15 C          64.7737   91.9065   16.1969 C.ar    1  UNL1        0.1401
     16 F          65.0659   93.1830   16.9283 F       1  UNL1       -0.2042
     17 C          65.5555   91.5509   14.9671 C.ar    1  UNL1        0.0296
     18 C          65.2633   90.2742   14.2357 C.ar    1  UNL1        0.0023
     19 C          62.6265   84.7611   10.8143 C.ar    1  UNL1        0.0087
     20 C          63.4012   84.6175    9.5379 C.ar    1  UNL1        0.0190
     21 C          62.9031   85.2674    8.2810 C.ar    1  UNL1        0.0986
     22 N          61.6303   86.0609    8.3006 N.ar    1  UNL1       -0.2423
     23 C          60.8556   86.2046    9.5770 C.ar    1  UNL1        0.0986
     24 C          61.3536   85.5547   10.8338 C.ar    1  UNL1        0.0190
@<TRIPOS>BOND
     1     1     2    1
     2     2    19    1
     3    19    20   ar
     4    20    21   ar
     5    21    22   ar
     6    22    23   ar
     7    23    24   ar
     8     2     3    1
     9     3     4    1
    10     4     5    1
    11     5     6   ar
    12     6     7   ar
    13     7    12    1
    14    12    13   ar
    15    13    14   ar
    16    14    15   ar
    17    15    16    1
    18    15    17   ar
    19    17    18   ar
    20     7     8   ar
    21     8     9   ar
    22     9    10   ar
    23    10     2    1
    24    24    19   ar
    25    10     5   ar
    26    18    12   ar
    27     1    11    1
@<TRIPOS>MOLECULE
*****
 24 27 0 0 0
SMALL
GASTEIGER

@<TRIPOS>ATOM
      1 O          61.9398   84.0422   11.4919 O.3     1  UNL1       -0.3786
      2 C          62.5621   85.2377   12.1503 C.3     1  UNL1        0.1257
      3 C          63.0464   84.2353   13.1555 C.3     1  UNL1        0.0401
      4 C          63.8396   84.9686   14.1962 C.3     1  UNL1        0.0292
      5 C          63.8456   86.4242   13.8342 C.ar    1  UNL1       -0.0236
      6 C          64.4679   87.6197   14.4925 C.ar    1  UNL1       -0.0045
      7 C          64.3007   88.9815   13.8864 C.ar    1  UNL1       -0.0003
      8 C          63.5112   89.1479   12.6219 C.ar    1  UNL1       -0.0003
      9 C          62.8888   87.9524   11.9636 C.ar    1  UNL1       -0.0020
     10 C          63.0560   86.5906   12.5697 C.ar    1  UNL1        0.0016
     11 H          62.1424   83.2466   12.0085 H       1  UNL1        0.2111
     12 C          64.9231   90.1771   14.5447 C.ar    1  UNL1        0.0001
     13 C          66.2739   90.6577   14.1038 C.ar    1  UNL1        0.0023
     14 C          66.8962   91.8532   14.7621 C.ar    1  UNL1        0.0296
     15 C          66.1678   92.5682   15.8614 C.ar    1  UNL1        0.1401
     16 F          66.7902   93.7637   16.5197 F       1  UNL1       -0.2042
     17 C          64.8170   92.0876   16.3023 C.ar    1  UNL1        0.0296
     18 C          64.1947   90.8920   15.6440 C.ar    1  UNL1        0.0023
     19 C          61.9477   85.9902   11.0074 C.ar    1  UNL1        0.0087
     20 C          60.7957   86.9188   11.2537 C.ar    1  UNL1        0.0190
     21 C          60.1813   87.6713   10.1108 C.ar    1  UNL1        0.0986
     22 N          60.7189   87.4953    8.7215 N.ar    1  UNL1       -0.2423
     23 C          61.8709   86.5667    8.4752 C.ar    1  UNL1        0.0986
     24 C          62.4853   85.8142    9.6181 C.ar    1  UNL1        0.0190
@<TRIPOS>BOND
     1     1     2    1
     2     2    19    1
     3    19    20   ar
     4    20    21   ar
     5    21    22   ar
     6    22    23   ar
     7    23    24   ar
     8     2     3    1
     9     3     4    1
    10     4     5    1
    11     5     6   ar
    12     6     7   ar
    13     7    12    1
    14    12    13   ar
    15    13    14   ar
    16    14    15   ar
    17    15    16    1
    18    15    17   ar
    19    17    18   ar
    20     7     8   ar
    21     8     9   ar
    22     9    10   ar
    23    10     2    1
    24    24    19   ar
    25    10     5   ar
    26    18    12   ar
    27     1    11    1
