@<TRIPOS>MOLECULE
*****
 32 36 0 0 0
SMALL
GASTEIGER

@<TRIPOS>ATOM
      1 C          61.8343   88.4501   10.8571 C.3     1  UNL1        0.0182
      2 C          62.7253   89.2468   11.7633 C.3     1  UNL1        0.0053
      3 C          63.6316   90.2412   12.4265 C.3     1  UNL1        0.0436
      4 C          63.8907   91.3532   11.4537 C.3     1  UNL1        0.1659
      5 C          63.1445   91.0460   10.1893 C.3     1  UNL1        0.0436
      6 C          62.4242   89.7442   10.3806 C.3     1  UNL1        0.0053
      7 C          60.9792   87.2429   10.6091 C.3     1  UNL1        0.0718
      8 N          61.2126   85.9848   11.3919 N.am    1  UNL1       -0.3025
      9 C          62.2563   85.0052   10.9435 C.2     1  UNL1        0.2458
     10 O          63.0666   85.2838    9.7122 O.2     1  UNL1       -0.2701
     11 H          60.6808   85.8020   12.2000 H       1  UNL1        0.1497
     12 C          62.4898   83.7471   11.7262 C.ar    1  UNL1        0.0534
     13 C          62.4642   83.7811   13.2256 C.ar    1  UNL1        0.0054
     14 C          62.6977   82.5230   14.0083 C.ar    1  UNL1        0.0115
     15 C          62.9567   81.2309   13.2917 C.ar    1  UNL1        0.0577
     16 CL         63.1901   79.9728   14.0744 Cl      1  UNL1       -0.0822
     17 C          62.9822   81.1970   11.7923 C.ar    1  UNL1        0.0115
     18 C          62.7487   82.4552   11.0095 C.ar    1  UNL1        0.0054
     19 C          60.0277   86.5148    8.3038 C.3     1  UNL1        0.0017
     20 C          59.8907   87.2938    9.5783 C.3     1  UNL1        0.0196
     21 O          64.7458   92.5603   11.7017 O.3     1  UNL1       -0.4791
     22 C          66.2036   92.3954   12.0143 C.ar    1  UNL1        0.1414
     23 C          67.1967   92.2421   10.9007 C.ar    1  UNL1        0.0576
     24 C          68.6545   92.0771   11.2133 C.ar    1  UNL1        0.1019
     25 N          69.1191   92.0655   12.6395 N.ar    1  UNL1       -0.2436
     26 C          68.1259   92.2189   13.7531 C.ar    1  UNL1        0.0844
     27 C          68.5905   92.2073   15.1793 C.ar    1  UNL1        0.0215
     28 C          67.5974   92.3606   16.2929 C.ar    1  UNL1        0.0312
     29 C          66.1396   92.5255   15.9803 C.ar    1  UNL1        0.1403
     30 F          65.1464   92.6789   17.0939 F       1  UNL1       -0.2042
     31 C          65.6750   92.5371   14.5541 C.ar    1  UNL1        0.0342
     32 C          66.6682   92.3838   13.4405 C.ar    1  UNL1        0.0539
@<TRIPOS>BOND
     1    19    20    1
     2    20     7    1
     3     7     8    1
     4     8     9   am
     5     9    10    2
     6     9    12    1
     7    12    13   ar
     8    13    14   ar
     9    14    15   ar
    10    15    16    1
    11    15    17   ar
    12    17    18   ar
    13     1     7    1
    14     1     2    1
    15     2     3    1
    16     3     4    1
    17     4    21    1
    18    21    22    1
    19    22    23   ar
    20    23    24   ar
    21    24    25   ar
    22    25    26   ar
    23    26    27   ar
    24    27    28   ar
    25    28    29   ar
    26    29    30    1
    27    29    31   ar
    28    31    32   ar
    29     4     5    1
    30     6     5    1
    31    18    12   ar
    32     6     1    1
    33     6     2    1
    34    32    22   ar
    35    32    26   ar
    36     8    11    1
@<TRIPOS>MOLECULE
*****
 32 36 0 0 0
SMALL
GASTEIGER

@<TRIPOS>ATOM
      1 C          64.8469   90.2506   14.0867 C.3     1  UNL1        0.0182
      2 C          64.6551   88.8276   14.5204 C.3     1  UNL1        0.0053
      3 C          64.2847   87.3848   14.6971 C.3     1  UNL1        0.0436
      4 C          63.3901   86.9931   13.5585 C.3     1  UNL1        0.1659
      5 C          63.2077   88.1938   12.6782 C.3     1  UNL1        0.0436
      6 C          63.9895   89.3276   13.2726 C.3     1  UNL1        0.0053
      7 C          65.4526   91.6052   14.3063 C.3     1  UNL1        0.0718
      8 N          65.5212   92.5884   13.1755 N.am    1  UNL1       -0.3025
      9 C          66.7691   92.6962   12.3501 C.2     1  UNL1        0.2458
     10 O          67.9483   91.8209   12.6556 O.2     1  UNL1       -0.2701
     11 H          64.7472   93.1628   12.9750 H       1  UNL1        0.1497
     12 C          66.8377   93.6794   11.2194 C.ar    1  UNL1        0.0534
     13 C          66.2891   95.0643   11.3953 C.ar    1  UNL1        0.0054
     14 C          66.3578   96.0474   10.2645 C.ar    1  UNL1        0.0115
     15 C          66.9751   95.6456    8.9577 C.ar    1  UNL1        0.0577
     16 CL         67.0437   96.6287    7.8269 Cl      1  UNL1       -0.0822
     17 C          67.5237   94.2607    8.7818 C.ar    1  UNL1        0.0115
     18 C          67.4550   93.2775    9.9127 C.ar    1  UNL1        0.0054
     19 C          67.0782   93.0018   15.7748 C.3     1  UNL1        0.0017
     20 C          65.9897   91.9766   15.6567 C.3     1  UNL1        0.0196
     21 O          62.7844   85.6385   13.3389 O.3     1  UNL1       -0.4791
     22 C          63.3088   84.7500   12.2500 C.ar    1  UNL1        0.1414
     23 C          64.2024   83.5943   12.5902 C.ar    1  UNL1        0.0576
     24 C          64.7268   82.7059   11.5014 C.ar    1  UNL1        0.1019
     25 N          64.3576   82.9731   10.0723 N.ar    1  UNL1       -0.2436
     26 C          63.4640   84.1288    9.7321 C.ar    1  UNL1        0.0844
     27 C          63.0948   84.3961    8.3030 C.ar    1  UNL1        0.0215
     28 C          62.2012   85.5518    7.9628 C.ar    1  UNL1        0.0312
     29 C          61.6767   86.4403    9.0517 C.ar    1  UNL1        0.1403
     30 F          60.7831   87.5960    8.7115 F       1  UNL1       -0.2042
     31 C          62.0459   86.1730   10.4808 C.ar    1  UNL1        0.0342
     32 C          62.9396   85.0173   10.8209 C.ar    1  UNL1        0.0539
@<TRIPOS>BOND
     1    19    20    1
     2    20     7    1
     3     7     8    1
     4     8     9   am
     5     9    10    2
     6     9    12    1
     7    12    13   ar
     8    13    14   ar
     9    14    15   ar
    10    15    16    1
    11    15    17   ar
    12    17    18   ar
    13     1     7    1
    14     1     2    1
    15     2     3    1
    16     3     4    1
    17     4    21    1
    18    21    22    1
    19    22    23   ar
    20    23    24   ar
    21    24    25   ar
    22    25    26   ar
    23    26    27   ar
    24    27    28   ar
    25    28    29   ar
    26    29    30    1
    27    29    31   ar
    28    31    32   ar
    29     4     5    1
    30     6     5    1
    31    18    12   ar
    32     6     1    1
    33     6     2    1
    34    32    22   ar
    35    32    26   ar
    36     8    11    1
@<TRIPOS>MOLECULE
*****
 32 36 0 0 0
SMALL
GASTEIGER

@<TRIPOS>ATOM
      1 C          64.9998   90.7254   14.0343 C.3     1  UNL1        0.0182
      2 C          64.0557   89.8330   13.2846 C.3     1  UNL1        0.0053
      3 C          63.2113   88.7213   12.7358 C.3     1  UNL1        0.0436
      4 C          63.4912   87.4862   13.5397 C.3     1  UNL1        0.1659
      5 C          64.5087   87.8346   14.5854 C.3     1  UNL1        0.0436
      6 C          64.8575   89.2850   14.4277 C.3     1  UNL1        0.0053
      7 C          65.6272   92.0723   14.2400 C.3     1  UNL1        0.0718
      8 N          65.7063   93.0447   13.1005 N.am    1  UNL1       -0.3025
      9 C          66.8346   92.9561   12.1160 C.2     1  UNL1        0.2458
     10 O          67.8837   91.8952   12.2710 O.2     1  UNL1       -0.2701
     11 H          65.0178   93.7409   12.9988 H       1  UNL1        0.1497
     12 C          66.9138   93.9284   10.9766 C.ar    1  UNL1        0.0534
     13 C          67.6272   93.5470    9.7134 C.ar    1  UNL1        0.0054
     14 C          67.7064   94.5193    8.5740 C.ar    1  UNL1        0.0115
     15 C          67.0722   95.8730    8.6977 C.ar    1  UNL1        0.0577
     16 CL         67.1514   96.8453    7.5582 Cl      1  UNL1       -0.0822
     17 C          66.3588   96.2544    9.9608 C.ar    1  UNL1        0.0115
     18 C          66.2796   95.2820   11.1003 C.ar    1  UNL1        0.0054
     19 C          67.6115   92.1662   15.9143 C.3     1  UNL1        0.0017
     20 C          66.1753   92.4469   15.5850 C.3     1  UNL1        0.0196
     21 O          62.8639   86.1393   13.3341 O.3     1  UNL1       -0.4791
     22 C          62.8957   85.4961   11.9793 C.ar    1  UNL1        0.1414
     23 C          62.6055   86.3122   10.7546 C.ar    1  UNL1        0.0576
     24 C          62.6373   85.6690    9.3999 C.ar    1  UNL1        0.1019
     25 N          62.9593   84.2098    9.2699 N.ar    1  UNL1       -0.2436
     26 C          63.2496   83.3937   10.4945 C.ar    1  UNL1        0.0844
     27 C          63.5716   81.9345   10.3644 C.ar    1  UNL1        0.0215
     28 C          63.8619   81.1184   11.5891 C.ar    1  UNL1        0.0312
     29 C          63.8301   81.7616   12.9439 C.ar    1  UNL1        0.1403
     30 F          64.1203   80.9456   14.1685 F       1  UNL1       -0.2042
     31 C          63.5080   83.2209   13.0739 C.ar    1  UNL1        0.0342
     32 C          63.2178   84.0369   11.8492 C.ar    1  UNL1        0.0539
@<TRIPOS>BOND
     1    19    20    1
     2    20     7    1
     3     7     8    1
     4     8     9   am
     5     9    10    2
     6     9    12    1
     7    12    13   ar
     8    13    14   ar
     9    14    15   ar
    10    15    16    1
    11    15    17   ar
    12    17    18   ar
    13     1     7    1
    14     1     2    1
    15     2     3    1
    16     3     4    1
    17     4    21    1
    18    21    22    1
    19    22    23   ar
    20    23    24   ar
    21    24    25   ar
    22    25    26   ar
    23    26    27   ar
    24    27    28   ar
    25    28    29   ar
    26    29    30    1
    27    29    31   ar
    28    31    32   ar
    29     4     5    1
    30     6     5    1
    31    18    12   ar
    32     6     1    1
    33     6     2    1
    34    32    22   ar
    35    32    26   ar
    36     8    11    1
@<TRIPOS>MOLECULE
*****
 32 36 0 0 0
SMALL
GASTEIGER

@<TRIPOS>ATOM
      1 C          62.7350   89.4937   11.6829 C.3     1  UNL1        0.0182
      2 C          63.6602   90.1435   12.6687 C.3     1  UNL1        0.0053
      3 C          64.6316   91.0011   13.4242 C.3     1  UNL1        0.0436
      4 C          65.0455   92.1315   12.5292 C.3     1  UNL1        0.1659
      5 C          64.3300   91.9724   11.2206 C.3     1  UNL1        0.0436
      6 C          63.4738   90.7437   11.3067 C.3     1  UNL1        0.0053
      7 C          61.7742   88.3969   11.3310 C.3     1  UNL1        0.0718
      8 N          61.9360   87.0347   11.9381 N.am    1  UNL1       -0.3025
      9 C          62.3851   85.8834   11.0880 C.2     1  UNL1        0.2458
     10 O          62.6725   86.0942    9.6309 O.2     1  UNL1       -0.2701
     11 H          61.7474   86.8964   12.8944 H       1  UNL1        0.1497
     12 C          62.5469   84.5213   11.6950 C.ar    1  UNL1        0.0534
     13 C          62.7705   83.3288   10.8129 C.ar    1  UNL1        0.0054
     14 C          62.9322   81.9667   11.4199 C.ar    1  UNL1        0.0115
     15 C          62.8705   81.7970   12.9090 C.ar    1  UNL1        0.0577
     16 CL         63.0323   80.4349   13.5160 Cl      1  UNL1       -0.0822
     17 C          62.6470   82.9895   13.7911 C.ar    1  UNL1        0.0115
     18 C          62.4852   84.3516   13.1841 C.ar    1  UNL1        0.0054
     19 C          60.8552   89.6015    9.2205 C.3     1  UNL1        0.0017
     20 C          60.6517   88.6622   10.3722 C.3     1  UNL1        0.0196
     21 O          66.0063   93.2283   12.8811 O.3     1  UNL1       -0.4791
     22 C          66.2616   94.3422   11.9094 C.ar    1  UNL1        0.1414
     23 C          65.8087   95.7357   12.2300 C.ar    1  UNL1        0.0576
     24 C          66.0640   96.8495   11.2582 C.ar    1  UNL1        0.1019
     25 N          66.7721   96.5697    9.9659 N.ar    1  UNL1       -0.2436
     26 C          67.2251   95.1761    9.6453 C.ar    1  UNL1        0.0844
     27 C          67.9333   94.8963    8.3529 C.ar    1  UNL1        0.0215
     28 C          68.3862   93.5028    8.0323 C.ar    1  UNL1        0.0312
     29 C          68.1309   92.3889    9.0041 C.ar    1  UNL1        0.1403
     30 F          68.5838   90.9954    8.6835 F       1  UNL1       -0.2042
     31 C          67.4227   92.6687   10.2964 C.ar    1  UNL1        0.0342
     32 C          66.9698   94.0624   10.6170 C.ar    1  UNL1        0.0539
@<TRIPOS>BOND
     1    19    20    1
     2    20     7    1
     3     7     8    1
     4     8     9   am
     5     9    10    2
     6     9    12    1
     7    12    13   ar
     8    13    14   ar
     9    14    15   ar
    10    15    16    1
    11    15    17   ar
    12    17    18   ar
    13     1     7    1
    14     1     2    1
    15     2     3    1
    16     3     4    1
    17     4    21    1
    18    21    22    1
    19    22    23   ar
    20    23    24   ar
    21    24    25   ar
    22    25    26   ar
    23    26    27   ar
    24    27    28   ar
    25    28    29   ar
    26    29    30    1
    27    29    31   ar
    28    31    32   ar
    29     4     5    1
    30     6     5    1
    31    18    12   ar
    32     6     1    1
    33     6     2    1
    34    32    22   ar
    35    32    26   ar
    36     8    11    1
@<TRIPOS>MOLECULE
*****
 32 36 0 0 0
SMALL
GASTEIGER

@<TRIPOS>ATOM
      1 C          63.4444   87.4738   15.9400 C.3     1  UNL1        0.0182
      2 C          64.3173   88.3536   15.0949 C.3     1  UNL1        0.0053
      3 C          65.0642   89.4652   14.4194 C.3     1  UNL1        0.0436
      4 C          64.6442   90.7582   15.0533 C.3     1  UNL1        0.1659
      5 C          63.6377   90.4456   16.1207 C.3     1  UNL1        0.0436
      6 C          63.4357   88.9595   16.1464 C.3     1  UNL1        0.0053
      7 C          62.9455   86.1081   16.3087 C.3     1  UNL1        0.0718
      8 N          62.7177   85.0794   15.2410 N.am    1  UNL1       -0.3025
      9 C          63.8810   84.5248   14.4734 C.2     1  UNL1        0.2458
     10 O          65.2721   84.9989   14.7735 O.2     1  UNL1       -0.2701
     11 H          61.8047   84.7682   15.0440 H       1  UNL1        0.1497
     12 C          63.6532   83.4961   13.4058 C.ar    1  UNL1        0.0534
     13 C          62.8604   82.2601   13.7121 C.ar    1  UNL1        0.0054
     14 C          62.6326   81.2314   12.6445 C.ar    1  UNL1        0.0115
     15 C          63.1977   81.4387   11.2705 C.ar    1  UNL1        0.0577
     16 CL         62.9699   80.4100   10.2029 Cl      1  UNL1       -0.0822
     17 C          63.9905   82.6746   10.9642 C.ar    1  UNL1        0.0115
     18 C          64.2183   83.7034   12.0319 C.ar    1  UNL1        0.0054
     19 C          62.6580   86.8568   18.7798 C.3     1  UNL1        0.0017
     20 C          62.6745   85.7711   17.7449 C.3     1  UNL1        0.0196
     21 O          65.1431   92.1239   14.6846 O.3     1  UNL1       -0.4791
     22 C          65.2959   92.5021   13.2411 C.ar    1  UNL1        0.1414
     23 C          66.3651   93.4698   12.8284 C.ar    1  UNL1        0.0576
     24 C          66.5178   93.8480   11.3850 C.ar    1  UNL1        0.1019
     25 N          65.6013   93.2585   10.3542 N.ar    1  UNL1       -0.2436
     26 C          64.5321   92.2908   10.7668 C.ar    1  UNL1        0.0844
     27 C          63.6156   91.7013    9.7360 C.ar    1  UNL1        0.0215
     28 C          62.5464   90.7336   10.1487 C.ar    1  UNL1        0.0312
     29 C          62.3937   90.3554   11.5922 C.ar    1  UNL1        0.1403
     30 F          61.3244   89.3877   12.0049 F       1  UNL1       -0.2042
     31 C          63.3101   90.9449   12.6230 C.ar    1  UNL1        0.0342
     32 C          64.3794   91.9126   12.2103 C.ar    1  UNL1        0.0539
@<TRIPOS>BOND
     1    19    20    1
     2    20     7    1
     3     7     8    1
     4     8     9   am
     5     9    10    2
     6     9    12    1
     7    12    13   ar
     8    13    14   ar
     9    14    15   ar
    10    15    16    1
    11    15    17   ar
    12    17    18   ar
    13     1     7    1
    14     1     2    1
    15     2     3    1
    16     3     4    1
    17     4    21    1
    18    21    22    1
    19    22    23   ar
    20    23    24   ar
    21    24    25   ar
    22    25    26   ar
    23    26    27   ar
    24    27    28   ar
    25    28    29   ar
    26    29    30    1
    27    29    31   ar
    28    31    32   ar
    29     4     5    1
    30     6     5    1
    31    18    12   ar
    32     6     1    1
    33     6     2    1
    34    32    22   ar
    35    32    26   ar
    36     8    11    1
@<TRIPOS>MOLECULE
*****
 32 36 0 0 0
SMALL
GASTEIGER

@<TRIPOS>ATOM
      1 C          59.5226   89.6627    6.8757 C.3     1  UNL1        0.0182
      2 C          60.1601   90.4399    5.7623 C.3     1  UNL1        0.0053
      3 C          60.5032   91.3059    4.5866 C.3     1  UNL1        0.0436
      4 C          59.2291   91.8935    4.0561 C.3     1  UNL1        0.1659
      5 C          58.0985   91.3905    4.9038 C.3     1  UNL1        0.0436
      6 C          58.6738   90.4922    5.9584 C.3     1  UNL1        0.0053
      7 C          59.6447   88.7351    8.0482 C.3     1  UNL1        0.0718
      8 N          60.4066   89.1635    9.2672 N.am    1  UNL1       -0.3025
      9 C          61.6404   88.4175    9.6810 C.2     1  UNL1        0.2458
     10 O          62.1123   87.2431    8.8758 O.2     1  UNL1       -0.2701
     11 H          60.0969   89.9342    9.7957 H       1  UNL1        0.1497
     12 C          62.4024   88.8458   10.9000 C.ar    1  UNL1        0.0534
     13 C          62.8498   87.8235   11.9024 C.ar    1  UNL1        0.0054
     14 C          63.6117   88.2518   13.1214 C.ar    1  UNL1        0.0115
     15 C          63.9262   89.7024   13.3381 C.ar    1  UNL1        0.0577
     16 CL         64.6882   90.1306   14.5571 Cl      1  UNL1       -0.0822
     17 C          63.4788   90.7246   12.3357 C.ar    1  UNL1        0.0115
     18 C          62.7168   90.2963   11.1167 C.ar    1  UNL1        0.0054
     19 C          59.7626   86.2112    7.4436 C.3     1  UNL1        0.0017
     20 C          59.0049   87.3793    8.0016 C.3     1  UNL1        0.0196
     21 O          59.1071   92.8211    2.8836 O.3     1  UNL1       -0.4791
     22 C          60.2472   92.9653    1.9195 C.ar    1  UNL1        0.1414
     23 C          61.6598   92.9718    2.4240 C.ar    1  UNL1        0.0576
     24 C          62.7998   93.1160    1.4600 C.ar    1  UNL1        0.1019
     25 N          62.5273   93.2538   -0.0086 N.ar    1  UNL1       -0.2436
     26 C          61.1147   93.2473   -0.5131 C.ar    1  UNL1        0.0844
     27 C          60.8422   93.3851   -1.9817 C.ar    1  UNL1        0.0215
     28 C          59.4297   93.3786   -2.4863 C.ar    1  UNL1        0.0312
     29 C          58.2895   93.2343   -1.5222 C.ar    1  UNL1        0.1403
     30 F          56.8770   93.2278   -2.0267 F       1  UNL1       -0.2042
     31 C          58.5620   93.0966   -0.0536 C.ar    1  UNL1        0.0342
     32 C          59.9747   93.1031    0.4509 C.ar    1  UNL1        0.0539
@<TRIPOS>BOND
     1    19    20    1
     2    20     7    1
     3     7     8    1
     4     8     9   am
     5     9    10    2
     6     9    12    1
     7    12    13   ar
     8    13    14   ar
     9    14    15   ar
    10    15    16    1
    11    15    17   ar
    12    17    18   ar
    13     1     7    1
    14     1     2    1
    15     2     3    1
    16     3     4    1
    17     4    21    1
    18    21    22    1
    19    22    23   ar
    20    23    24   ar
    21    24    25   ar
    22    25    26   ar
    23    26    27   ar
    24    27    28   ar
    25    28    29   ar
    26    29    30    1
    27    29    31   ar
    28    31    32   ar
    29     4     5    1
    30     6     5    1
    31    18    12   ar
    32     6     1    1
    33     6     2    1
    34    32    22   ar
    35    32    26   ar
    36     8    11    1
@<TRIPOS>MOLECULE
*****
 32 36 0 0 0
SMALL
GASTEIGER

@<TRIPOS>ATOM
      1 C          61.7999   87.6018    9.5888 C.3     1  UNL1        0.0182
      2 C          62.5838   86.4021    9.1460 C.3     1  UNL1        0.0053
      3 C          63.2542   85.0725    8.9650 C.3     1  UNL1        0.0436
      4 C          62.8747   84.2004   10.1249 C.3     1  UNL1        0.1659
      5 C          61.9698   84.9910   11.0227 C.3     1  UNL1        0.0436
      6 C          61.7900   86.3518   10.4177 C.3     1  UNL1        0.0053
      7 C          61.3529   89.0162    9.3659 C.3     1  UNL1        0.0718
      8 N          62.2532   90.1555    9.7425 N.am    1  UNL1       -0.3025
      9 C          63.0251   90.1080   11.0278 C.2     1  UNL1        0.2458
     10 O          62.8968   88.9214   11.9364 O.2     1  UNL1       -0.2701
     11 H          62.3374   90.9343    9.1462 H       1  UNL1        0.1497
     12 C          63.9253   91.2472   11.4045 C.ar    1  UNL1        0.0534
     13 C          64.4180   91.3789   12.8152 C.ar    1  UNL1        0.0054
     14 C          65.3182   92.5180   13.1919 C.ar    1  UNL1        0.0115
     15 C          65.7257   93.5255   12.1579 C.ar    1  UNL1        0.0577
     16 CL         66.6259   94.6647   12.5346 Cl      1  UNL1       -0.0822
     17 C          65.2330   93.3938   10.7473 C.ar    1  UNL1        0.0115
     18 C          64.3327   92.2546   10.3706 C.ar    1  UNL1        0.0054
     19 C          59.4550   88.3806    7.7094 C.3     1  UNL1        0.0017
     20 C          60.0058   89.2914    8.7663 C.3     1  UNL1        0.0196
     21 O          63.3217   82.7860   10.3479 O.3     1  UNL1       -0.4791
     22 C          63.1389   82.1446   11.6915 C.ar    1  UNL1        0.1414
     23 C          62.6861   80.7178   11.7862 C.ar    1  UNL1        0.0576
     24 C          62.5034   80.0765   13.1298 C.ar    1  UNL1        0.1019
     25 N          62.7735   80.8621   14.3787 N.ar    1  UNL1       -0.2436
     26 C          63.2263   82.2890   14.2841 C.ar    1  UNL1        0.0844
     27 C          63.4963   83.0745   15.5331 C.ar    1  UNL1        0.0215
     28 C          63.9491   84.5014   15.4384 C.ar    1  UNL1        0.0312
     29 C          64.1319   85.1428   14.0947 C.ar    1  UNL1        0.1403
     30 F          64.5847   86.5696   14.0001 F       1  UNL1       -0.2042
     31 C          63.8618   84.3572   12.8458 C.ar    1  UNL1        0.0342
     32 C          63.4090   82.9302   12.9405 C.ar    1  UNL1        0.0539
@<TRIPOS>BOND
     1    19    20    1
     2    20     7    1
     3     7     8    1
     4     8     9   am
     5     9    10    2
     6     9    12    1
     7    12    13   ar
     8    13    14   ar
     9    14    15   ar
    10    15    16    1
    11    15    17   ar
    12    17    18   ar
    13     1     7    1
    14     1     2    1
    15     2     3    1
    16     3     4    1
    17     4    21    1
    18    21    22    1
    19    22    23   ar
    20    23    24   ar
    21    24    25   ar
    22    25    26   ar
    23    26    27   ar
    24    27    28   ar
    25    28    29   ar
    26    29    30    1
    27    29    31   ar
    28    31    32   ar
    29     4     5    1
    30     6     5    1
    31    18    12   ar
    32     6     1    1
    33     6     2    1
    34    32    22   ar
    35    32    26   ar
    36     8    11    1
@<TRIPOS>MOLECULE
*****
 32 36 0 0 0
SMALL
GASTEIGER

@<TRIPOS>ATOM
      1 C          59.9327   92.3742    3.4890 C.3     1  UNL1        0.0182
      2 C          60.2903   91.3551    4.5299 C.3     1  UNL1        0.0053
      3 C          60.3430   90.3511    5.6431 C.3     1  UNL1        0.0436
      4 C          58.9598   90.2099    6.2059 C.3     1  UNL1        0.1659
      5 C          58.0522   91.1267    5.4406 C.3     1  UNL1        0.0436
      6 C          58.8744   91.8345    4.4048 C.3     1  UNL1        0.0053
      7 C          60.3372   93.2741    2.3592 C.3     1  UNL1        0.0718
      8 N          59.2912   93.8761    1.4684 N.am    1  UNL1       -0.3025
      9 C          58.9416   93.2141    0.1685 C.2     1  UNL1        0.2458
     10 O          59.6382   91.9501   -0.2405 O.2     1  UNL1       -0.2701
     11 H          58.8341   94.7057    1.7368 H       1  UNL1        0.1497
     12 C          57.8956   93.8160   -0.7222 C.ar    1  UNL1        0.0534
     13 C          56.8467   92.9423   -1.3438 C.ar    1  UNL1        0.0054
     14 C          55.8007   93.5442   -2.2346 C.ar    1  UNL1        0.0115
     15 C          55.8036   95.0199   -2.5039 C.ar    1  UNL1        0.0577
     16 CL         54.7576   95.6218   -3.3947 Cl      1  UNL1       -0.0822
     17 C          56.8526   95.8936   -1.8823 C.ar    1  UNL1        0.0115
     18 C          57.8987   95.2916   -0.9915 C.ar    1  UNL1        0.0054
     19 C          62.7593   92.4489    1.9093 C.3     1  UNL1        0.0017
     20 C          61.7878   93.5721    2.1202 C.3     1  UNL1        0.0196
     21 O          58.5553   89.3100    7.3357 O.3     1  UNL1       -0.4791
     22 C          59.4595   88.1929    7.7654 C.ar    1  UNL1        0.1414
     23 C          59.3656   86.8529    7.0979 C.ar    1  UNL1        0.0576
     24 C          60.2698   85.7359    7.5276 C.ar    1  UNL1        0.1019
     25 N          61.2679   85.9589    8.6249 N.ar    1  UNL1       -0.2436
     26 C          61.3618   87.2988    9.2924 C.ar    1  UNL1        0.0844
     27 C          62.3599   87.5217   10.3897 C.ar    1  UNL1        0.0215
     28 C          62.4539   88.8616   11.0573 C.ar    1  UNL1        0.0312
     29 C          61.5496   89.9787   10.6276 C.ar    1  UNL1        0.1403
     30 F          61.6436   91.3187   11.2952 F       1  UNL1       -0.2042
     31 C          60.5515   89.7558    9.5303 C.ar    1  UNL1        0.0342
     32 C          60.4576   88.4158    8.8627 C.ar    1  UNL1        0.0539
@<TRIPOS>BOND
     1    19    20    1
     2    20     7    1
     3     7     8    1
     4     8     9   am
     5     9    10    2
     6     9    12    1
     7    12    13   ar
     8    13    14   ar
     9    14    15   ar
    10    15    16    1
    11    15    17   ar
    12    17    18   ar
    13     1     7    1
    14     1     2    1
    15     2     3    1
    16     3     4    1
    17     4    21    1
    18    21    22    1
    19    22    23   ar
    20    23    24   ar
    21    24    25   ar
    22    25    26   ar
    23    26    27   ar
    24    27    28   ar
    25    28    29   ar
    26    29    30    1
    27    29    31   ar
    28    31    32   ar
    29     4     5    1
    30     6     5    1
    31    18    12   ar
    32     6     1    1
    33     6     2    1
    34    32    22   ar
    35    32    26   ar
    36     8    11    1
@<TRIPOS>MOLECULE
*****
 32 36 0 0 0
SMALL
GASTEIGER

@<TRIPOS>ATOM
      1 C          59.7706   89.7719    6.5034 C.3     1  UNL1        0.0182
      2 C          60.4326   90.6650    5.4965 C.3     1  UNL1        0.0053
      3 C          60.8047   91.6701    4.4470 C.3     1  UNL1        0.0436
      4 C          59.5567   92.3921    4.0333 C.3     1  UNL1        0.1659
      5 C          58.4132   91.8332    4.8271 C.3     1  UNL1        0.0436
      6 C          58.9546   90.7658    5.7314 C.3     1  UNL1        0.0053
      7 C          59.8596   88.6824    7.5306 C.3     1  UNL1        0.0718
      8 N          60.9110   88.7427    8.5987 N.am    1  UNL1       -0.3025
      9 C          60.7305   89.6514    9.7784 C.2     1  UNL1        0.2458
     10 O          59.4985   90.4998    9.8899 O.2     1  UNL1       -0.2701
     11 H          61.7196   88.1858    8.5255 H       1  UNL1        0.1497
     12 C          61.7819   89.7117   10.8465 C.ar    1  UNL1        0.0534
     13 C          62.3967   91.0279   11.2203 C.ar    1  UNL1        0.0054
     14 C          63.4481   91.0882   12.2884 C.ar    1  UNL1        0.0115
     15 C          63.8847   89.8323   12.9828 C.ar    1  UNL1        0.0577
     16 CL         64.9361   89.8926   14.0509 Cl      1  UNL1       -0.0822
     17 C          63.2699   88.5161   12.6090 C.ar    1  UNL1        0.0115
     18 C          62.2184   88.4558   11.5409 C.ar    1  UNL1        0.0054
     19 C          59.3972   86.1293    7.6646 C.3     1  UNL1        0.0017
     20 C          58.8972   87.5326    7.4896 C.3     1  UNL1        0.0196
     21 O          59.4677   93.4816    3.0062 O.3     1  UNL1       -0.4791
     22 C          59.8781   93.2115    1.5888 C.ar    1  UNL1        0.1414
     23 C          58.8818   92.6624    0.6113 C.ar    1  UNL1        0.0576
     24 C          59.2921   92.3923   -0.8060 C.ar    1  UNL1        0.1019
     25 N          60.6989   92.6714   -1.2456 N.ar    1  UNL1       -0.2436
     26 C          61.6952   93.2205   -0.2680 C.ar    1  UNL1        0.0844
     27 C          63.1019   93.4996   -0.7077 C.ar    1  UNL1        0.0215
     28 C          64.0982   94.0487    0.2699 C.ar    1  UNL1        0.0312
     29 C          63.6879   94.3188    1.6872 C.ar    1  UNL1        0.1403
     30 F          64.6842   94.8680    2.6648 F       1  UNL1       -0.2042
     31 C          62.2811   94.0397    2.1269 C.ar    1  UNL1        0.0342
     32 C          61.2848   93.4906    1.1492 C.ar    1  UNL1        0.0539
@<TRIPOS>BOND
     1    19    20    1
     2    20     7    1
     3     7     8    1
     4     8     9   am
     5     9    10    2
     6     9    12    1
     7    12    13   ar
     8    13    14   ar
     9    14    15   ar
    10    15    16    1
    11    15    17   ar
    12    17    18   ar
    13     1     7    1
    14     1     2    1
    15     2     3    1
    16     3     4    1
    17     4    21    1
    18    21    22    1
    19    22    23   ar
    20    23    24   ar
    21    24    25   ar
    22    25    26   ar
    23    26    27   ar
    24    27    28   ar
    25    28    29   ar
    26    29    30    1
    27    29    31   ar
    28    31    32   ar
    29     4     5    1
    30     6     5    1
    31    18    12   ar
    32     6     1    1
    33     6     2    1
    34    32    22   ar
    35    32    26   ar
    36     8    11    1
