@<TRIPOS>MOLECULE
*****
 38 44 0 0 0
SMALL
GASTEIGER

@<TRIPOS>ATOM
      1 C          60.0049   88.7105    7.3396 C.2     1  UNL1       -0.0378
      2 C          60.9502   89.5387    6.5208 C.2     1  UNL1       -0.0080
      3 C          60.4153   90.5769    5.5794 C.2     1  UNL1        0.0022
      4 C          58.9352   90.7868    5.4569 C.2     1  UNL1        0.0350
      5 C          58.1209   91.7280    4.6197 C.2     1  UNL1        0.1040
      6 N          56.6723   91.4816    4.9210 N.2     1  UNL1       -0.1483
      7 N          56.5913   90.3880    5.9445 N.2     1  UNL1       -0.1520
      8 C          57.9899   89.9586    6.2757 C.2     1  UNL1        0.0860
      9 C          58.5247   88.9205    7.2170 C.3     1  UNL1        0.0697
     10 C          62.6119   82.7508   11.9487 C.3     1  UNL1        0.0310
     11 C          62.5715   84.2467   11.8451 C.ar    1  UNL1       -0.0221
     12 C          63.2046   85.0898   12.9120 C.ar    1  UNL1       -0.0030
     13 C          63.1642   86.5857   12.8084 C.ar    1  UNL1        0.0140
     14 C          62.4906   87.2384   11.6378 C.ar    1  UNL1        0.0467
     15 C          61.8575   86.3953   10.5709 C.ar    1  UNL1       -0.0011
     16 C          61.8978   84.8994   10.6745 C.ar    1  UNL1       -0.0068
     17 C          61.2698   87.3146    9.5416 C.3     1  UNL1        0.0927
     18 C          60.7361   86.2321    8.6509 C.3     1  UNL1        0.0179
     19 C          60.5398   87.6724    8.2810 C.3     1  UNL1        0.0315
     20 C          61.5397   88.7258    9.9723 C.2     1  UNL1        0.2293
     21 O          61.1275   89.9664    9.2367 O.2     1  UNL1       -0.2744
     22 N          62.2942   88.6788   11.2679 N.am    1  UNL1       -0.2839
     23 H          62.6059   89.4566   11.7847 H       1  UNL1        0.1549
     24 C          58.6604   92.7384    3.6511 C.2     1  UNL1        0.0209
     25 C          59.9652   92.4877    2.9549 C.2     1  UNL1        0.0016
     26 C          60.5049   93.4980    1.9863 C.ar    1  UNL1        0.0000
     27 C          60.2730   94.9611    2.2219 C.ar    1  UNL1       -0.0003
     28 C          60.8126   95.9714    1.2534 C.ar    1  UNL1       -0.0029
     29 C          61.5841   95.5186    0.0493 C.ar    1  UNL1       -0.0061
     30 C          61.8159   94.0554   -0.1862 C.ar    1  UNL1       -0.0029
     31 C          61.2763   93.0451    0.7823 C.ar    1  UNL1       -0.0003
     32 C          62.1237   96.5289   -0.9192 C.3     1  UNL1        0.0993
     33 N          63.5997   96.6110   -1.1729 N.3     1  UNL1       -0.2646
     34 C          64.1252   96.5318   -2.5756 C.3     1  UNL1        0.1049
     35 C          65.6013   96.6138   -2.8294 C.3     1  UNL1        0.1595
     36 O          66.5520   96.7750   -1.6804 O.3     1  UNL1       -0.3508
     37 C          66.0265   96.8542   -0.2777 C.3     1  UNL1        0.1595
     38 C          64.5504   96.7721   -0.0239 C.3     1  UNL1        0.1049
@<TRIPOS>BOND
     1    10    11    1
     2    11    12   ar
     3    12    13   ar
     4    13    14   ar
     5    14    15   ar
     6    15    16   ar
     7    15    17    1
     8    17    18    1
     9    18    19    1
    10    19     1    1
    11     1     2    2
    12     2     3    1
    13     3     4    2
    14     4     5    1
    15     5    24    1
    16    24    25    2
    17    25    26    1
    18    26    27   ar
    19    27    28   ar
    20    28    29   ar
    21    29    32    1
    22    32    33    1
    23    33    34    1
    24    34    35    1
    25    35    36    1
    26    36    37    1
    27    37    38    1
    28    29    30   ar
    29    30    31   ar
    30     5     6    2
    31     6     7    1
    32     7     8    2
    33     8     9    1
    34    17    20    1
    35    20    21    2
    36    20    22   am
    37    16    11   ar
    38    19    17    1
    39     9     1    1
    40    22    14    1
    41     8     4    1
    42    31    26   ar
    43    38    33    1
    44    22    23    1
@<TRIPOS>MOLECULE
*****
 38 44 0 0 0
SMALL
GASTEIGER

@<TRIPOS>ATOM
      1 C          60.0877   88.7177    7.3363 C.2     1  UNL1       -0.0378
      2 C          61.0453   89.5395    6.5254 C.2     1  UNL1       -0.0080
      3 C          60.5251   90.5775    5.5756 C.2     1  UNL1        0.0022
      4 C          59.0473   90.7937    5.4368 C.2     1  UNL1        0.0350
      5 C          58.2462   91.7363    4.5884 C.2     1  UNL1        0.1040
      6 N          56.7934   91.4971    4.8750 N.2     1  UNL1       -0.1483
      7 N          56.6966   90.4067    5.9004 N.2     1  UNL1       -0.1520
      8 C          58.0897   89.9719    6.2476 C.2     1  UNL1        0.0860
      9 C          58.6098   88.9340    7.1974 C.3     1  UNL1        0.0697
     10 C          62.6219   82.7588   11.9866 C.3     1  UNL1        0.0310
     11 C          62.5841   84.2546   11.8816 C.ar    1  UNL1       -0.0221
     12 C          63.2021   85.0978   12.9573 C.ar    1  UNL1       -0.0030
     13 C          63.1642   86.5937   12.8522 C.ar    1  UNL1        0.0140
     14 C          62.5085   87.2463   11.6715 C.ar    1  UNL1        0.0467
     15 C          61.8906   86.4030   10.5958 C.ar    1  UNL1       -0.0011
     16 C          61.9284   84.9072   10.7008 C.ar    1  UNL1       -0.0068
     17 C          61.3188   87.3222    9.5574 C.3     1  UNL1        0.0927
     18 C          60.7977   86.2395    8.6596 C.3     1  UNL1        0.0179
     19 C          60.6078   87.6797    8.2860 C.3     1  UNL1        0.0315
     20 C          61.5834   88.7335    9.9914 C.2     1  UNL1        0.2293
     21 O          61.1830   89.9739    9.2491 O.2     1  UNL1       -0.2744
     22 N          62.3186   88.6866   11.2979 N.am    1  UNL1       -0.2839
     23 H          62.6231   89.4645   11.8188 H       1  UNL1        0.1549
     24 C          58.8005   92.7417    3.6230 C.2     1  UNL1        0.0209
     25 C          60.2080   92.6044    3.1230 C.2     1  UNL1        0.0016
     26 C          60.7625   93.6097    2.1576 C.ar    1  UNL1        0.0000
     27 C          62.0812   93.3586    1.4883 C.ar    1  UNL1       -0.0003
     28 C          62.6357   94.3638    0.5228 C.ar    1  UNL1       -0.0029
     29 C          61.8715   95.6201    0.2268 C.ar    1  UNL1       -0.0061
     30 C          60.5528   95.8712    0.8961 C.ar    1  UNL1       -0.0029
     31 C          59.9983   94.8660    1.8615 C.ar    1  UNL1       -0.0003
     32 C          62.4260   96.6253   -0.7386 C.3     1  UNL1        0.0993
     33 N          62.9438   96.1772   -2.0731 N.3     1  UNL1       -0.2646
     34 C          64.3999   96.3261   -2.4012 C.3     1  UNL1        0.1049
     35 C          64.9178   95.8781   -3.7358 C.3     1  UNL1        0.1595
     36 O          63.9794   95.2811   -4.7423 O.3     1  UNL1       -0.3508
     37 C          62.5234   95.1322   -4.4143 C.3     1  UNL1        0.1595
     38 C          62.0055   95.5802   -3.0797 C.3     1  UNL1        0.1049
@<TRIPOS>BOND
     1    10    11    1
     2    11    12   ar
     3    12    13   ar
     4    13    14   ar
     5    14    15   ar
     6    15    16   ar
     7    15    17    1
     8    17    18    1
     9    18    19    1
    10    19     1    1
    11     1     2    2
    12     2     3    1
    13     3     4    2
    14     4     5    1
    15     5    24    1
    16    24    25    2
    17    25    26    1
    18    26    27   ar
    19    27    28   ar
    20    28    29   ar
    21    29    32    1
    22    32    33    1
    23    33    34    1
    24    34    35    1
    25    35    36    1
    26    36    37    1
    27    37    38    1
    28    29    30   ar
    29    30    31   ar
    30     5     6    2
    31     6     7    1
    32     7     8    2
    33     8     9    1
    34    17    20    1
    35    20    21    2
    36    20    22   am
    37    16    11   ar
    38    19    17    1
    39     9     1    1
    40    22    14    1
    41     8     4    1
    42    31    26   ar
    43    38    33    1
    44    22    23    1
@<TRIPOS>MOLECULE
*****
 38 44 0 0 0
SMALL
GASTEIGER

@<TRIPOS>ATOM
      1 C          73.0359   75.3738   15.1142 C.2     1  UNL1       -0.0378
      2 C          72.9055   75.7169   13.6598 C.2     1  UNL1       -0.0080
      3 C          72.9423   77.1509   13.2212 C.2     1  UNL1        0.0022
      4 C          73.1095   78.2418   14.2371 C.2     1  UNL1        0.0350
      5 C          73.1812   79.7342   14.1047 C.2     1  UNL1        0.1040
      6 N          73.3559   80.3135   15.4772 N.2     1  UNL1       -0.1483
      7 N          73.3922   79.1791   16.4579 N.2     1  UNL1       -0.1520
      8 C          73.2399   77.8987   15.6915 C.2     1  UNL1        0.0860
      9 C          73.2031   76.4648   16.1301 C.3     1  UNL1        0.0697
     10 C          73.4064   67.6778   17.1615 C.3     1  UNL1        0.0310
     11 C          72.5428   68.8994   17.2707 C.ar    1  UNL1       -0.0221
     12 C          71.2329   68.8292   17.9981 C.ar    1  UNL1       -0.0030
     13 C          70.3693   70.0509   18.1074 C.ar    1  UNL1        0.0140
     14 C          70.8158   71.3426   17.4893 C.ar    1  UNL1        0.0467
     15 C          72.1258   71.4128   16.7619 C.ar    1  UNL1       -0.0011
     16 C          72.9893   70.1912   16.6526 C.ar    1  UNL1       -0.0068
     17 C          72.3015   72.8145   16.2578 C.3     1  UNL1        0.0927
     18 C          73.6329   72.5815   15.6074 C.3     1  UNL1        0.0179
     19 C          72.9991   73.9399   15.5527 C.3     1  UNL1        0.0315
     20 C          71.1002   73.6107   16.6735 C.2     1  UNL1        0.2293
     21 O          70.8594   75.0618   16.3798 O.2     1  UNL1       -0.2744
     22 N          70.1819   72.7011   17.4347 N.am    1  UNL1       -0.2839
     23 H          69.3154   72.9516   17.8291 H       1  UNL1        0.1549
     24 C          73.0936   80.5110   12.8244 C.2     1  UNL1        0.0209
     25 C          72.4013   79.9179   11.6332 C.2     1  UNL1        0.0016
     26 C          72.3136   80.6946   10.3529 C.ar    1  UNL1        0.0000
     27 C          72.4990   79.9966    9.0382 C.ar    1  UNL1       -0.0003
     28 C          72.4113   80.7732    7.7579 C.ar    1  UNL1       -0.0029
     29 C          72.1383   82.2477    7.7924 C.ar    1  UNL1       -0.0061
     30 C          71.9529   82.9457    9.1071 C.ar    1  UNL1       -0.0029
     31 C          72.0406   82.1691   10.3874 C.ar    1  UNL1       -0.0003
     32 C          72.0506   83.0243    6.5120 C.3     1  UNL1        0.0993
     33 N          72.5772   82.4326    5.2383 N.3     1  UNL1       -0.2646
     34 C          72.7431   83.2956    4.0227 C.3     1  UNL1        0.1049
     35 C          73.2697   82.7039    2.7489 C.3     1  UNL1        0.1595
     36 O          73.6305   81.2491    2.6907 O.3     1  UNL1       -0.3508
     37 C          73.4646   80.3861    3.9063 C.3     1  UNL1        0.1595
     38 C          72.9380   80.9778    5.1801 C.3     1  UNL1        0.1049
@<TRIPOS>BOND
     1    10    11    1
     2    11    12   ar
     3    12    13   ar
     4    13    14   ar
     5    14    15   ar
     6    15    16   ar
     7    15    17    1
     8    17    18    1
     9    18    19    1
    10    19     1    1
    11     1     2    2
    12     2     3    1
    13     3     4    2
    14     4     5    1
    15     5    24    1
    16    24    25    2
    17    25    26    1
    18    26    27   ar
    19    27    28   ar
    20    28    29   ar
    21    29    32    1
    22    32    33    1
    23    33    34    1
    24    34    35    1
    25    35    36    1
    26    36    37    1
    27    37    38    1
    28    29    30   ar
    29    30    31   ar
    30     5     6    2
    31     6     7    1
    32     7     8    2
    33     8     9    1
    34    17    20    1
    35    20    21    2
    36    20    22   am
    37    16    11   ar
    38    19    17    1
    39     9     1    1
    40    22    14    1
    41     8     4    1
    42    31    26   ar
    43    38    33    1
    44    22    23    1
@<TRIPOS>MOLECULE
*****
 38 44 0 0 0
SMALL
GASTEIGER

@<TRIPOS>ATOM
      1 C          61.0285   87.6044    9.5154 C.2     1  UNL1       -0.0378
      2 C          61.8894   88.7189    8.9989 C.2     1  UNL1       -0.0080
      3 C          61.3947   89.5947    7.8860 C.2     1  UNL1        0.0022
      4 C          60.0392   89.3559    7.2897 C.2     1  UNL1        0.0350
      5 C          59.2893   90.0500    6.1916 C.2     1  UNL1        0.1040
      6 N          57.9650   89.3645    6.0295 N.2     1  UNL1       -0.1483
      7 N          57.8964   88.2467    7.0274 N.2     1  UNL1       -0.1520
      8 C          59.1784   88.2413    7.8062 C.2     1  UNL1        0.0860
      9 C          59.6730   87.3656    8.9190 C.3     1  UNL1        0.0697
     10 C          63.3510   83.3351   15.8349 C.3     1  UNL1        0.0310
     11 C          63.4532   83.4024   14.3399 C.ar    1  UNL1       -0.0221
     12 C          64.2428   82.3674   13.5948 C.ar    1  UNL1       -0.0030
     13 C          64.3450   82.4348   12.0998 C.ar    1  UNL1        0.0140
     14 C          63.6576   83.5371   11.3500 C.ar    1  UNL1        0.0467
     15 C          62.8680   84.5721   12.0951 C.ar    1  UNL1       -0.0011
     16 C          62.7657   84.5048   13.5901 C.ar    1  UNL1       -0.0068
     17 C          62.3026   85.5342   11.0928 C.3     1  UNL1        0.0927
     18 C          61.6005   86.4062   12.0911 C.3     1  UNL1        0.0179
     19 C          61.5232   86.7287   10.6282 C.3     1  UNL1        0.0315
     20 C          62.7429   85.0938    9.7281 C.2     1  UNL1        0.2293
     21 O          62.4050   85.7692    8.4320 O.2     1  UNL1       -0.2744
     22 N          63.5803   83.8596    9.8870 N.am    1  UNL1       -0.2839
     23 H          64.0047   83.3505    9.1590 H       1  UNL1        0.1549
     24 C          59.7779   91.2236    5.3955 C.2     1  UNL1        0.0209
     25 C          60.5970   91.0021    4.1585 C.2     1  UNL1        0.0016
     26 C          61.0856   92.1757    3.3623 C.ar    1  UNL1        0.0000
     27 C          60.1296   93.2591    2.9595 C.ar    1  UNL1       -0.0003
     28 C          60.6182   94.4327    2.1633 C.ar    1  UNL1       -0.0029
     29 C          62.0628   94.5228    1.7699 C.ar    1  UNL1       -0.0061
     30 C          63.0189   93.4394    2.1727 C.ar    1  UNL1       -0.0029
     31 C          62.5303   92.2658    2.9689 C.ar    1  UNL1       -0.0003
     32 C          62.5514   95.6964    0.9737 C.3     1  UNL1        0.0993
     33 N          63.2463   95.4763   -0.3372 N.3     1  UNL1       -0.2646
     34 C          62.7900   94.3796   -1.2532 C.3     1  UNL1        0.1049
     35 C          63.4848   94.1595   -2.5642 C.3     1  UNL1        0.1595
     36 O          64.6361   95.0362   -2.9593 O.3     1  UNL1       -0.3508
     37 C          65.0924   96.1329   -2.0434 C.3     1  UNL1        0.1595
     38 C          64.3975   96.3530   -0.7324 C.3     1  UNL1        0.1049
@<TRIPOS>BOND
     1    10    11    1
     2    11    12   ar
     3    12    13   ar
     4    13    14   ar
     5    14    15   ar
     6    15    16   ar
     7    15    17    1
     8    17    18    1
     9    18    19    1
    10    19     1    1
    11     1     2    2
    12     2     3    1
    13     3     4    2
    14     4     5    1
    15     5    24    1
    16    24    25    2
    17    25    26    1
    18    26    27   ar
    19    27    28   ar
    20    28    29   ar
    21    29    32    1
    22    32    33    1
    23    33    34    1
    24    34    35    1
    25    35    36    1
    26    36    37    1
    27    37    38    1
    28    29    30   ar
    29    30    31   ar
    30     5     6    2
    31     6     7    1
    32     7     8    2
    33     8     9    1
    34    17    20    1
    35    20    21    2
    36    20    22   am
    37    16    11   ar
    38    19    17    1
    39     9     1    1
    40    22    14    1
    41     8     4    1
    42    31    26   ar
    43    38    33    1
    44    22    23    1
@<TRIPOS>MOLECULE
*****
 38 44 0 0 0
SMALL
GASTEIGER

@<TRIPOS>ATOM
      1 C          63.3316   84.6856   14.1963 C.2     1  UNL1       -0.0378
      2 C          63.8099   85.7700   13.2769 C.2     1  UNL1       -0.0080
      3 C          63.9459   87.1758   13.7820 C.2     1  UNL1        0.0022
      4 C          63.6036   87.4973   15.2066 C.2     1  UNL1        0.0350
      5 C          63.6381   88.7808   15.9821 C.2     1  UNL1        0.1040
      6 N          63.1812   88.4898   17.3808 N.2     1  UNL1       -0.1483
      7 N          62.8643   87.0263   17.4698 N.2     1  UNL1       -0.1520
      8 C          63.1253   86.4129   16.1261 C.2     1  UNL1        0.0860
      9 C          62.9893   85.0071   15.6210 C.3     1  UNL1        0.0697
     10 C          62.5657   77.0268   12.1196 C.3     1  UNL1        0.0310
     11 C          62.7382   78.4039   11.5506 C.ar    1  UNL1       -0.0221
     12 C          62.8144   78.5975   10.0651 C.ar    1  UNL1       -0.0030
     13 C          62.9870   79.9747    9.4962 C.ar    1  UNL1        0.0140
     14 C          63.0833   81.1582   10.4127 C.ar    1  UNL1        0.0467
     15 C          63.0071   80.9645   11.8982 C.ar    1  UNL1       -0.0011
     16 C          62.8346   79.5874   12.4672 C.ar    1  UNL1       -0.0068
     17 C          63.1312   82.3107   12.5481 C.3     1  UNL1        0.0927
     18 C          63.0244   81.8140   13.9594 C.3     1  UNL1        0.0179
     19 C          63.1956   83.2798   13.6912 C.3     1  UNL1        0.0315
     20 C          63.2841   83.3364   11.4643 C.2     1  UNL1        0.2293
     21 O          63.4394   84.8147   11.6649 O.2     1  UNL1       -0.2744
     22 N          63.2545   82.6241   10.1445 N.am    1  UNL1       -0.2839
     23 H          63.3336   83.0448    9.2579 H       1  UNL1        0.1549
     24 C          64.0562   90.1202   15.4519 C.2     1  UNL1        0.0209
     25 C          64.8861   90.2077   14.2054 C.2     1  UNL1        0.0016
     26 C          65.3042   91.5472   13.6751 C.ar    1  UNL1        0.0000
     27 C          66.0711   92.4940   14.5500 C.ar    1  UNL1       -0.0003
     28 C          66.4893   93.8334   14.0198 C.ar    1  UNL1       -0.0029
     29 C          66.1405   94.2259   12.6147 C.ar    1  UNL1       -0.0061
     30 C          65.3736   93.2791   11.7399 C.ar    1  UNL1       -0.0029
     31 C          64.9554   91.9397   12.2701 C.ar    1  UNL1       -0.0003
     32 C          66.5586   95.5653   12.0845 C.3     1  UNL1        0.0993
     33 N          66.4420   95.8615   10.6188 N.3     1  UNL1       -0.2646
     34 C          65.2104   96.5309   10.0845 C.3     1  UNL1        0.1049
     35 C          65.0937   96.8271    8.6187 C.3     1  UNL1        0.1595
     36 O          66.2085   96.4539    7.6871 O.3     1  UNL1       -0.3508
     37 C          67.4400   95.7846    8.2213 C.3     1  UNL1        0.1595
     38 C          67.5567   95.4884    9.6871 C.3     1  UNL1        0.1049
@<TRIPOS>BOND
     1    10    11    1
     2    11    12   ar
     3    12    13   ar
     4    13    14   ar
     5    14    15   ar
     6    15    16   ar
     7    15    17    1
     8    17    18    1
     9    18    19    1
    10    19     1    1
    11     1     2    2
    12     2     3    1
    13     3     4    2
    14     4     5    1
    15     5    24    1
    16    24    25    2
    17    25    26    1
    18    26    27   ar
    19    27    28   ar
    20    28    29   ar
    21    29    32    1
    22    32    33    1
    23    33    34    1
    24    34    35    1
    25    35    36    1
    26    36    37    1
    27    37    38    1
    28    29    30   ar
    29    30    31   ar
    30     5     6    2
    31     6     7    1
    32     7     8    2
    33     8     9    1
    34    17    20    1
    35    20    21    2
    36    20    22   am
    37    16    11   ar
    38    19    17    1
    39     9     1    1
    40    22    14    1
    41     8     4    1
    42    31    26   ar
    43    38    33    1
    44    22    23    1
