@<TRIPOS>MOLECULE
*****
 21 22 0 0 0
SMALL
GASTEIGER

@<TRIPOS>ATOM
      1 C          62.6822   88.4779   12.5226 C.2     1  UNL1        0.2235
      2 O          61.7573   89.6442   12.3375 O.2     1  UNL1       -0.2751
      3 N          62.4663   87.2177   11.7381 N.am    1  UNL1       -0.3004
      4 H          63.0733   86.4522   11.8595 H       1  UNL1        0.1497
      5 C          63.8228   88.5716   13.4922 C.3     1  UNL1        0.0963
      6 C          64.6811   91.6936   13.0847 C.3     1  UNL1        0.0495
      7 C          64.2148   91.0673   14.3655 C.2     1  UNL1        0.0641
      8 N          64.0612   91.7661   15.6838 N.2     1  UNL1       -0.1570
      9 N          63.5717   90.7630   16.6860 N.2     1  UNL1       -0.1570
     10 C          63.4228   89.4442   15.9869 C.2     1  UNL1        0.0641
     11 C          62.9580   88.1625   16.6122 C.3     1  UNL1        0.0495
     12 C          63.8203   89.6323   14.5528 C.3     1  UNL1        0.0847
     13 C          61.3257   87.1239   10.7685 C.3     1  UNL1        0.1172
     14 C          61.5028   86.3932    9.4705 C.ar    1  UNL1        0.0081
     15 C          62.7822   85.6623    9.1897 C.ar    1  UNL1       -0.0009
     16 C          62.9592   84.9317    7.8918 C.ar    1  UNL1        0.0112
     17 C          61.8569   84.9319    6.8746 C.ar    1  UNL1        0.0585
     18 CL         62.0339   84.2012    5.5766 Cl      1  UNL1       -0.0822
     19 C          60.5774   85.6628    7.1553 C.ar    1  UNL1        0.0225
     20 C          60.4004   86.3934    8.4532 C.ar    1  UNL1        0.0561
     21 CL         59.1209   87.1244    8.7340 Cl      1  UNL1       -0.0825
@<TRIPOS>BOND
     1     6     7    1
     2     7     8    2
     3     8     9    1
     4     9    10    2
     5    10    11    1
     6    10    12    1
     7    12     5    1
     8     5     1    1
     9     1     2    2
    10     1     3   am
    11     3    13    1
    12    13    14    1
    13    14    15   ar
    14    15    16   ar
    15    16    17   ar
    16    17    18    1
    17    17    19   ar
    18    19    20   ar
    19    20    21    1
    20    12     7    1
    21    20    14   ar
    22     3     4    1
@<TRIPOS>MOLECULE
*****
 21 22 0 0 0
SMALL
GASTEIGER

@<TRIPOS>ATOM
      1 C          63.0130   89.0640   12.4124 C.2     1  UNL1        0.2235
      2 O          62.4882   90.4090   12.0053 O.2     1  UNL1       -0.2751
      3 N          62.5299   87.8276   11.7138 N.am    1  UNL1       -0.3004
      4 H          62.8743   86.9449   11.9810 H       1  UNL1        0.1497
      5 C          64.0207   88.9555   13.5181 C.3     1  UNL1        0.0963
      6 C          62.7473   88.9708   16.5227 C.3     1  UNL1        0.0495
      7 C          63.5655   90.0665   15.9063 C.2     1  UNL1        0.0641
      8 N          63.9421   91.3615   16.5628 N.2     1  UNL1       -0.1570
      9 N          64.7602   92.1550   15.5874 N.2     1  UNL1       -0.1570
     10 C          64.8892   91.3502   14.3282 C.2     1  UNL1        0.0641
     11 C          65.6270   91.7636   13.0894 C.3     1  UNL1        0.0495
     12 C          64.1509   90.0594   14.5253 C.3     1  UNL1        0.0847
     13 C          61.5222   87.9361   10.6081 C.3     1  UNL1        0.1172
     14 C          61.5788   86.9893    9.4461 C.ar    1  UNL1        0.0081
     15 C          62.8218   86.1896    9.1901 C.ar    1  UNL1       -0.0009
     16 C          62.8783   85.2428    8.0281 C.ar    1  UNL1        0.0112
     17 C          61.6920   85.0957    7.1221 C.ar    1  UNL1        0.0585
     18 CL         61.7486   84.1488    5.9600 Cl      1  UNL1       -0.0822
     19 C          60.4490   85.8953    7.3781 C.ar    1  UNL1        0.0225
     20 C          60.3924   86.8421    8.5401 C.ar    1  UNL1        0.0561
     21 CL         59.1494   87.6418    8.7961 Cl      1  UNL1       -0.0825
@<TRIPOS>BOND
     1     6     7    1
     2     7     8    2
     3     8     9    1
     4     9    10    2
     5    10    11    1
     6    10    12    1
     7    12     5    1
     8     5     1    1
     9     1     2    2
    10     1     3   am
    11     3    13    1
    12    13    14    1
    13    14    15   ar
    14    15    16   ar
    15    16    17   ar
    16    17    18    1
    17    17    19   ar
    18    19    20   ar
    19    20    21    1
    20    12     7    1
    21    20    14   ar
    22     3     4    1
@<TRIPOS>MOLECULE
*****
 21 22 0 0 0
SMALL
GASTEIGER

@<TRIPOS>ATOM
      1 C          63.8244   87.4569   13.5672 C.2     1  UNL1        0.2235
      2 O          62.9725   88.2018   12.5827 O.2     1  UNL1       -0.2751
      3 N          63.7943   85.9576   13.6016 N.am    1  UNL1       -0.3004
      4 H          64.3534   85.4687   14.2478 H       1  UNL1        0.1497
      5 C          64.7065   88.2113   14.5173 C.3     1  UNL1        0.0963
      6 C          65.1002   91.3296   13.6393 C.3     1  UNL1        0.0495
      7 C          64.3529   90.8405   14.8444 C.2     1  UNL1        0.0641
      8 N          63.6554   91.6990   15.8575 N.2     1  UNL1       -0.1570
      9 N          63.0432   90.7963   16.8873 N.2     1  UNL1       -0.1570
     10 C          63.3625   89.3799   16.5106 C.2     1  UNL1        0.0641
     11 C          62.9455   88.1518   17.2642 C.3     1  UNL1        0.0495
     12 C          64.1719   89.4073   15.2480 C.3     1  UNL1        0.0847
     13 C          62.9122   85.2032   12.6515 C.3     1  UNL1        0.1172
     14 C          62.7441   83.7201   12.8010 C.ar    1  UNL1        0.0081
     15 C          62.1860   83.1529   14.0725 C.ar    1  UNL1       -0.0009
     16 C          62.0180   81.6699   14.2219 C.ar    1  UNL1        0.0112
     17 C          62.4081   80.7541   13.0999 C.ar    1  UNL1        0.0585
     18 CL         62.2401   79.2710   13.2494 Cl      1  UNL1       -0.0822
     19 C          62.9663   81.3212   11.8284 C.ar    1  UNL1        0.0225
     20 C          63.1343   82.8042   11.6789 C.ar    1  UNL1        0.0561
     21 CL         63.6924   83.3715   10.4074 Cl      1  UNL1       -0.0825
@<TRIPOS>BOND
     1     6     7    1
     2     7     8    2
     3     8     9    1
     4     9    10    2
     5    10    11    1
     6    10    12    1
     7    12     5    1
     8     5     1    1
     9     1     2    2
    10     1     3   am
    11     3    13    1
    12    13    14    1
    13    14    15   ar
    14    15    16   ar
    15    16    17   ar
    16    17    18    1
    17    17    19   ar
    18    19    20   ar
    19    20    21    1
    20    12     7    1
    21    20    14   ar
    22     3     4    1
@<TRIPOS>MOLECULE
*****
 21 22 0 0 0
SMALL
GASTEIGER

@<TRIPOS>ATOM
      1 C          64.1762   87.9965   14.2355 C.2     1  UNL1        0.2235
      2 O          63.5229   87.9130   12.8878 O.2     1  UNL1       -0.2751
      3 N          64.2537   89.3124   14.9512 N.am    1  UNL1       -0.3004
      4 H          64.6825   89.3672   15.8358 H       1  UNL1        0.1497
      5 C          64.7521   86.7640   14.8674 C.3     1  UNL1        0.0963
      6 C          64.4292   84.0090   13.1482 C.3     1  UNL1        0.0495
      7 C          63.7095   84.3435   14.4211 C.2     1  UNL1        0.0641
      8 N          62.7151   83.4703   15.1272 N.2     1  UNL1       -0.1570
      9 N          62.2488   84.1970   16.3539 N.2     1  UNL1       -0.1570
     10 C          62.9552   85.5193   16.4058 C.2     1  UNL1        0.0641
     11 C          62.7881   86.5670   17.4661 C.3     1  UNL1        0.0495
     12 C          63.8579   85.6098   15.2113 C.3     1  UNL1        0.0847
     13 C          63.6778   90.5449   14.3194 C.3     1  UNL1        0.1172
     14 C          64.4268   91.2470   13.2256 C.ar    1  UNL1        0.0081
     15 C          63.8539   91.3030   11.8406 C.ar    1  UNL1       -0.0009
     16 C          64.6029   92.0050   10.7469 C.ar    1  UNL1        0.0112
     17 C          65.9249   92.6510   11.0384 C.ar    1  UNL1        0.0585
     18 CL         66.6740   93.3531    9.9447 Cl      1  UNL1       -0.0822
     19 C          66.4979   92.5950   12.4235 C.ar    1  UNL1        0.0225
     20 C          65.7489   91.8930   13.5171 C.ar    1  UNL1        0.0561
     21 CL         66.3218   91.8369   14.9023 Cl      1  UNL1       -0.0825
@<TRIPOS>BOND
     1     6     7    1
     2     7     8    2
     3     8     9    1
     4     9    10    2
     5    10    11    1
     6    10    12    1
     7    12     5    1
     8     5     1    1
     9     1     2    2
    10     1     3   am
    11     3    13    1
    12    13    14    1
    13    14    15   ar
    14    15    16   ar
    15    16    17   ar
    16    17    18    1
    17    17    19   ar
    18    19    20   ar
    19    20    21    1
    20    12     7    1
    21    20    14   ar
    22     3     4    1
@<TRIPOS>MOLECULE
*****
 21 22 0 0 0
SMALL
GASTEIGER

@<TRIPOS>ATOM
      1 C          61.9836   87.1065   10.8061 C.2     1  UNL1        0.2235
      2 O          62.1195   87.5885    9.3921 O.2     1  UNL1       -0.2751
      3 N          62.1604   88.0658   11.9457 N.am    1  UNL1       -0.3004
      4 H          62.0711   87.7495   12.8737 H       1  UNL1        0.1497
      5 C          61.6708   85.6654   11.0805 C.3     1  UNL1        0.0963
      6 C          63.2662   84.5811    8.4483 C.3     1  UNL1        0.0495
      7 C          63.5035   84.1466    9.8643 C.2     1  UNL1        0.0641
      8 N          64.5158   83.1374   10.3189 N.2     1  UNL1       -0.1570
      9 N          64.4082   83.0121   11.8098 N.2     1  UNL1       -0.1570
     10 C          63.3293   83.9439   12.2765 C.2     1  UNL1        0.0641
     11 C          62.8872   84.1400   13.6964 C.3     1  UNL1        0.0495
     12 C          62.7702   84.6450   11.0741 C.3     1  UNL1        0.0847
     13 C          62.4731   89.5069   11.6713 C.3     1  UNL1        0.1172
     14 C          63.5552   90.2001   12.4452 C.ar    1  UNL1        0.0081
     15 C          63.9507   89.6929   13.8002 C.ar    1  UNL1       -0.0009
     16 C          65.0327   90.3861   14.5740 C.ar    1  UNL1        0.0112
     17 C          65.7191   91.5865   13.9927 C.ar    1  UNL1        0.0585
     18 CL         66.8011   92.2796   14.7666 Cl      1  UNL1       -0.0822
     19 C          65.3236   92.0937   12.6377 C.ar    1  UNL1        0.0225
     20 C          64.2416   91.4005   11.8639 C.ar    1  UNL1        0.0561
     21 CL         63.8460   91.9077   10.5088 Cl      1  UNL1       -0.0825
@<TRIPOS>BOND
     1     6     7    1
     2     7     8    2
     3     8     9    1
     4     9    10    2
     5    10    11    1
     6    10    12    1
     7    12     5    1
     8     5     1    1
     9     1     2    2
    10     1     3   am
    11     3    13    1
    12    13    14    1
    13    14    15   ar
    14    15    16   ar
    15    16    17   ar
    16    17    18    1
    17    17    19   ar
    18    19    20   ar
    19    20    21    1
    20    12     7    1
    21    20    14   ar
    22     3     4    1
@<TRIPOS>MOLECULE
*****
 21 22 0 0 0
SMALL
GASTEIGER

@<TRIPOS>ATOM
      1 C          64.0951   88.2632   13.9222 C.2     1  UNL1        0.2235
      2 O          64.2447   89.7434   14.1138 O.2     1  UNL1       -0.2751
      3 N          63.3493   87.7324   12.7338 N.am    1  UNL1       -0.3004
      4 H          63.2511   86.7609   12.6080 H       1  UNL1        0.1497
      5 C          64.6911   87.3139   14.9189 C.3     1  UNL1        0.0963
      6 C          64.4695   84.3341   13.6070 C.3     1  UNL1        0.0495
      7 C          63.7716   84.8051   14.8484 C.2     1  UNL1        0.0641
      8 N          62.8493   83.9890   15.7048 N.2     1  UNL1       -0.1570
      9 N          62.3811   84.8543   16.8371 N.2     1  UNL1       -0.1570
     10 C          63.0141   86.2051   16.6805 C.2     1  UNL1        0.0641
     11 C          62.8215   87.3801   17.5928 C.3     1  UNL1        0.0495
     12 C          63.8735   86.1747   15.4514 C.3     1  UNL1        0.0847
     13 C          62.7533   88.6817   11.7371 C.3     1  UNL1        0.1172
     14 C          61.8348   88.1679   10.6682 C.ar    1  UNL1        0.0081
     15 C          61.9410   86.7439   10.2089 C.ar    1  UNL1       -0.0009
     16 C          61.0226   86.2302    9.1401 C.ar    1  UNL1        0.0112
     17 C          59.9978   87.1403    8.5306 C.ar    1  UNL1        0.0585
     18 CL         59.0793   86.6265    7.4617 Cl      1  UNL1       -0.0822
     19 C          59.8915   88.5643    8.9900 C.ar    1  UNL1        0.0225
     20 C          60.8100   89.0780   10.0588 C.ar    1  UNL1        0.0561
     21 CL         60.7038   90.5021   10.5182 Cl      1  UNL1       -0.0825
@<TRIPOS>BOND
     1     6     7    1
     2     7     8    2
     3     8     9    1
     4     9    10    2
     5    10    11    1
     6    10    12    1
     7    12     5    1
     8     5     1    1
     9     1     2    2
    10     1     3   am
    11     3    13    1
    12    13    14    1
    13    14    15   ar
    14    15    16   ar
    15    16    17   ar
    16    17    18    1
    17    17    19   ar
    18    19    20   ar
    19    20    21    1
    20    12     7    1
    21    20    14   ar
    22     3     4    1
@<TRIPOS>MOLECULE
*****
 21 22 0 0 0
SMALL
GASTEIGER

@<TRIPOS>ATOM
      1 C          64.1125   88.1185   14.5902 C.2     1  UNL1        0.2235
      2 O          63.8908   89.1191   15.6855 O.2     1  UNL1       -0.2751
      3 N          63.7252   88.4521   13.1800 N.am    1  UNL1       -0.3004
      4 H          63.8707   87.7954   12.4611 H       1  UNL1        0.1497
      5 C          64.7214   86.7844   14.9052 C.3     1  UNL1        0.0963
      6 C          64.3902   84.1192   13.0514 C.3     1  UNL1        0.0495
      7 C          63.6866   84.3833   14.3495 C.2     1  UNL1        0.0641
      8 N          62.7072   83.4687   15.0235 N.2     1  UNL1       -0.1570
      9 N          62.2541   84.1285   16.2921 N.2     1  UNL1       -0.1570
     10 C          62.9535   85.4508   16.4022 C.2     1  UNL1        0.0641
     11 C          62.7953   86.4418   17.5171 C.3     1  UNL1        0.0495
     12 C          63.8388   85.6083   15.2016 C.3     1  UNL1        0.0847
     13 C          63.1162   89.7862   12.8651 C.3     1  UNL1        0.1172
     14 C          63.9890   90.9237   12.4239 C.ar    1  UNL1        0.0081
     15 C          64.9701   91.5316   13.3820 C.ar    1  UNL1       -0.0009
     16 C          65.8428   92.6690   12.9409 C.ar    1  UNL1        0.0112
     17 C          65.7343   93.1986   11.5417 C.ar    1  UNL1        0.0585
     18 CL         66.6071   94.3361   11.1006 Cl      1  UNL1       -0.0822
     19 C          64.7532   92.5908   10.5836 C.ar    1  UNL1        0.0225
     20 C          63.8806   91.4534   11.0247 C.ar    1  UNL1        0.0561
     21 CL         62.8994   90.8455   10.0667 Cl      1  UNL1       -0.0825
@<TRIPOS>BOND
     1     6     7    1
     2     7     8    2
     3     8     9    1
     4     9    10    2
     5    10    11    1
     6    10    12    1
     7    12     5    1
     8     5     1    1
     9     1     2    2
    10     1     3   am
    11     3    13    1
    12    13    14    1
    13    14    15   ar
    14    15    16   ar
    15    16    17   ar
    16    17    18    1
    17    17    19   ar
    18    19    20   ar
    19    20    21    1
    20    12     7    1
    21    20    14   ar
    22     3     4    1
@<TRIPOS>MOLECULE
*****
 21 22 0 0 0
SMALL
GASTEIGER

@<TRIPOS>ATOM
      1 C          63.7818   87.6963   13.4721 C.2     1  UNL1        0.2235
      2 O          62.8300   88.4437   12.5858 O.2     1  UNL1       -0.2751
      3 N          63.8202   86.1972   13.4361 N.am    1  UNL1       -0.3004
      4 H          64.4449   85.7066   14.0178 H       1  UNL1        0.1497
      5 C          64.6953   88.4480   14.3943 C.3     1  UNL1        0.0963
      6 C          62.9835   88.0835   17.1486 C.3     1  UNL1        0.0495
      7 C          63.3663   89.3879   16.5145 C.2     1  UNL1        0.0641
      8 N          63.0294   90.7537   17.0350 N.2     1  UNL1       -0.1570
      9 N          63.6081   91.7654   16.0907 N.2     1  UNL1       -0.1570
     10 C          64.3025   91.0248   14.9866 C.2     1  UNL1        0.0641
     11 C          65.0204   91.6447   13.8245 C.3     1  UNL1        0.0495
     12 C          64.1531   89.5554   15.2485 C.3     1  UNL1        0.0847
     13 C          62.9067   85.4455   12.5138 C.3     1  UNL1        0.1172
     14 C          62.7712   83.9570   12.6414 C.ar    1  UNL1        0.0081
     15 C          62.1953   83.3608   13.8915 C.ar    1  UNL1       -0.0009
     16 C          62.0597   81.8724   14.0190 C.ar    1  UNL1        0.0112
     17 C          62.5001   80.9803   12.8964 C.ar    1  UNL1        0.0585
     18 CL         62.3646   79.4918   13.0240 Cl      1  UNL1       -0.0822
     19 C          63.0760   81.5765   11.6463 C.ar    1  UNL1        0.0225
     20 C          63.2116   83.0649   11.5188 C.ar    1  UNL1        0.0561
     21 CL         63.7875   83.6612   10.2687 Cl      1  UNL1       -0.0825
@<TRIPOS>BOND
     1     6     7    1
     2     7     8    2
     3     8     9    1
     4     9    10    2
     5    10    11    1
     6    10    12    1
     7    12     5    1
     8     5     1    1
     9     1     2    2
    10     1     3   am
    11     3    13    1
    12    13    14    1
    13    14    15   ar
    14    15    16   ar
    15    16    17   ar
    16    17    18    1
    17    17    19   ar
    18    19    20   ar
    19    20    21    1
    20    12     7    1
    21    20    14   ar
    22     3     4    1
@<TRIPOS>MOLECULE
*****
 21 22 0 0 0
SMALL
GASTEIGER

@<TRIPOS>ATOM
      1 C          63.5199   87.3918   13.3643 C.2     1  UNL1        0.2235
      2 O          62.6438   88.1099   12.3810 O.2     1  UNL1       -0.2751
      3 N          63.3936   85.9071   13.5367 N.am    1  UNL1       -0.3004
      4 H          63.9687   85.4358   14.1821 H       1  UNL1        0.1497
      5 C          64.5223   88.1584   14.1751 C.3     1  UNL1        0.0963
      6 C          63.0080   88.0643   17.0643 C.3     1  UNL1        0.0495
      7 C          63.3889   89.3027   16.3084 C.2     1  UNL1        0.0641
      8 N          63.1406   90.7152   16.7478 N.2     1  UNL1       -0.1570
      9 N          63.6832   91.6315   15.6913 N.2     1  UNL1       -0.1570
     10 C          64.2668   90.7852   14.5990 C.2     1  UNL1        0.0641
     11 C          64.9180   91.2897   13.3455 C.3     1  UNL1        0.0495
     12 C          64.0850   89.3459   14.9804 C.3     1  UNL1        0.0847
     13 C          62.3913   85.1404   12.7259 C.3     1  UNL1        0.1172
     14 C          62.5219   85.0813   11.2327 C.ar    1  UNL1        0.0081
     15 C          61.6796   85.9738   10.3702 C.ar    1  UNL1       -0.0009
     16 C          61.8103   85.9147    8.8771 C.ar    1  UNL1        0.0112
     17 C          62.7833   84.9631    8.2465 C.ar    1  UNL1        0.0585
     18 CL         62.9140   84.9040    6.7533 Cl      1  UNL1       -0.0822
     19 C          63.6256   84.0706    9.1090 C.ar    1  UNL1        0.0225
     20 C          63.4949   84.1297   10.6021 C.ar    1  UNL1        0.0561
     21 CL         64.3372   83.2372   11.4647 Cl      1  UNL1       -0.0825
@<TRIPOS>BOND
     1     6     7    1
     2     7     8    2
     3     8     9    1
     4     9    10    2
     5    10    11    1
     6    10    12    1
     7    12     5    1
     8     5     1    1
     9     1     2    2
    10     1     3   am
    11     3    13    1
    12    13    14    1
    13    14    15   ar
    14    15    16   ar
    15    16    17   ar
    16    17    18    1
    17    17    19   ar
    18    19    20   ar
    19    20    21    1
    20    12     7    1
    21    20    14   ar
    22     3     4    1
