@<TRIPOS>MOLECULE
*****
 47 51 0 0 0
SMALL
GASTEIGER

@<TRIPOS>ATOM
      1 C          60.7256   86.8629    9.2508 C.3     1  UNL1        0.0964
      2 C          59.8558   86.0453    8.3425 C.3     1  UNL1        0.0780
      3 N          58.8642   86.7226    7.4437 N.3     1  UNL1       -0.2970
      4 C          58.7424   88.2176    7.4532 C.3     1  UNL1        0.0689
      5 C          59.6121   89.0352    8.3615 C.3     1  UNL1        0.0220
      6 C          60.6037   88.3579    9.2603 C.3     1  UNL1        0.0337
      7 H          57.9457   86.3508    7.6855 H       1  UNL1        0.1233
      8 C          61.4735   89.1755   10.1686 C.ar    1  UNL1       -0.0217
      9 C          61.1450   89.2791   11.6285 C.ar    1  UNL1       -0.0012
     10 C          62.0147   90.0968   12.5368 C.ar    1  UNL1        0.0366
     11 C          63.2130   90.8108   11.9852 C.ar    1  UNL1        0.1387
     12 C          63.5415   90.7072   10.5253 C.ar    1  UNL1        0.0366
     13 C          62.6717   89.8895    9.6170 C.ar    1  UNL1       -0.0012
     14 O          64.0827   91.6284   12.8935 O.3     1  UNL1       -0.4714
     15 C          65.4242   92.1037   12.4197 C.3     1  UNL1        0.2525
     16 C          65.9671   93.4170   12.8998 C.3     1  UNL1        0.2525
     17 O          67.1081   94.0670   12.1747 O.3     1  UNL1       -0.4697
     18 C          66.8676   94.7608   10.8668 C.ar    1  UNL1        0.1596
     19 C          67.1846   94.0623    9.5778 C.ar    1  UNL1        0.0921
     20 CL         67.7422   92.6700    9.5968 Cl      1  UNL1       -0.0791
     21 C          66.9441   94.7561    8.2698 C.ar    1  UNL1        0.0103
     22 C          66.3865   96.1485    8.2508 C.ar    1  UNL1       -0.0200
     23 C          66.1460   96.8423    6.9429 C.3     1  UNL1        0.0311
     24 C          66.0694   96.8471    9.5399 C.ar    1  UNL1        0.0103
     25 C          66.3099   96.1533   10.8478 C.ar    1  UNL1        0.0921
     26 CL         65.9929   96.8518   12.1368 Cl      1  UNL1       -0.0791
     27 N          62.7123   85.2207    9.5763 N.am    1  UNL1       -0.2770
     28 C          61.7172   86.1855   10.1496 C.2     1  UNL1        0.2270
     29 O          61.7137   86.4729   11.6218 O.2     1  UNL1       -0.2748
     30 C          62.7159   84.9332    8.1041 C.3     1  UNL1        0.0758
     31 C          61.9833   84.5411    6.8553 C.3     1  UNL1        0.0215
     32 C          63.4548   84.8274    6.8030 C.3     1  UNL1        0.0215
     33 C          63.7040   84.5432   10.4751 C.3     1  UNL1        0.1209
     34 C          62.5477   83.6074   14.1544 C.ar    1  UNL1       -0.0207
     35 C          62.2712   82.1412   14.0003 C.ar    1  UNL1       -0.0034
     36 C          62.4723   81.4757   12.6712 C.ar    1  UNL1        0.0108
     37 C          62.9499   82.2764   11.4961 C.ar    1  UNL1        0.0553
     38 CL         63.1509   81.6109   10.1670 Cl      1  UNL1       -0.0825
     39 C          63.2264   83.7425   11.6502 C.ar    1  UNL1        0.0079
     40 C          63.0253   84.4081   12.9794 C.ar    1  UNL1       -0.0060
     41 C          62.3467   84.2729   15.4836 C.3     1  UNL1        0.0476
     42 C          63.4379   85.1170   16.0725 C.3     1  UNL1        0.0941
     43 C          63.0017   88.9879   16.8313 C.3     1  UNL1        0.0946
     44 C          63.0201   87.4999   17.0197 C.2     1  UNL1        0.2230
     45 O          62.6389   86.9067   18.3437 O.2     1  UNL1       -0.2751
     46 N          63.4196   86.6050   15.8840 N.am    1  UNL1       -0.3040
     47 H          63.6697   86.9943   15.0151 H       1  UNL1        0.1494
@<TRIPOS>BOND
     1    43    44    1
     2    44    45    2
     3    44    46   am
     4    46    42    1
     5    42    41    1
     6    41    34    1
     7    34    35   ar
     8    35    36   ar
     9    36    37   ar
    10    37    38    1
    11    37    39   ar
    12    39    33    1
    13    33    27    1
    14    27    28   am
    15    28    29    2
    16     1    28    1
    17     1     2    1
    18     2     3    1
    19     3     4    1
    20     4     5    1
    21     5     6    1
    22     6     8    1
    23     8     9   ar
    24     9    10   ar
    25    10    11   ar
    26    11    14    1
    27    14    15    1
    28    15    16    1
    29    16    17    1
    30    17    18    1
    31    18    19   ar
    32    19    20    1
    33    19    21   ar
    34    21    22   ar
    35    22    23    1
    36    22    24   ar
    37    24    25   ar
    38    25    26    1
    39    11    12   ar
    40    12    13   ar
    41    27    30    1
    42    30    31    1
    43    31    32    1
    44    39    40   ar
    45    40    34   ar
    46     6     1    1
    47    13     8   ar
    48    32    30    1
    49    25    18   ar
    50    46    47    1
    51     3     7    1
@<TRIPOS>MOLECULE
*****
 47 51 0 0 0
SMALL
GASTEIGER

@<TRIPOS>ATOM
      1 C          60.7263   86.8619    9.3002 C.3     1  UNL1        0.0964
      2 C          59.8697   86.0516    8.3731 C.3     1  UNL1        0.0780
      3 N          58.8960   86.7367    7.4607 N.3     1  UNL1       -0.2970
      4 C          58.7790   88.2320    7.4754 C.3     1  UNL1        0.0689
      5 C          59.6356   89.0423    8.4025 C.3     1  UNL1        0.0220
      6 C          60.6093   88.3572    9.3149 C.3     1  UNL1        0.0337
      7 H          57.9722   86.3668    7.6847 H       1  UNL1        0.1233
      8 C          61.4660   89.1675   10.2421 C.ar    1  UNL1       -0.0217
      9 C          62.6811   89.8726    9.7165 C.ar    1  UNL1       -0.0012
     10 C          63.5378   90.6828   10.6436 C.ar    1  UNL1        0.0366
     11 C          63.1794   90.7880   12.0963 C.ar    1  UNL1        0.1387
     12 C          61.9643   90.0829   12.6219 C.ar    1  UNL1        0.0366
     13 C          61.1076   89.2726   11.6948 C.ar    1  UNL1       -0.0012
     14 O          64.0361   91.5983   13.0235 O.3     1  UNL1       -0.4714
     15 C          65.4151   92.0112   12.6018 C.3     1  UNL1        0.2525
     16 C          65.8400   93.4442   12.7269 C.3     1  UNL1        0.2525
     17 O          67.0730   93.9253   12.0208 O.3     1  UNL1       -0.4697
     18 C          66.9532   94.6576   10.7172 C.ar    1  UNL1        0.1596
     19 C          66.4269   96.0620   10.6916 C.ar    1  UNL1        0.0921
     20 CL         66.0205   96.7340   11.9695 Cl      1  UNL1       -0.0791
     21 C          66.3071   96.7943    9.3880 C.ar    1  UNL1        0.0103
     22 C          66.7136   96.1223    8.1101 C.ar    1  UNL1       -0.0200
     23 C          66.5938   96.8546    6.8065 C.3     1  UNL1        0.0311
     24 C          67.2399   94.7178    8.1357 C.ar    1  UNL1        0.0103
     25 C          67.3597   93.9855    9.4393 C.ar    1  UNL1        0.0921
     26 CL         67.8860   92.5811    9.4650 Cl      1  UNL1       -0.0791
     27 N          62.7079   85.2185    9.6506 N.am    1  UNL1       -0.2770
     28 C          61.7001   86.1768   10.2127 C.2     1  UNL1        0.2270
     29 O          61.6659   86.4499   11.6872 O.2     1  UNL1       -0.2748
     30 C          62.7421   84.9453    8.1761 C.3     1  UNL1        0.0758
     31 C          63.5009   84.8833    6.8837 C.3     1  UNL1        0.0215
     32 C          62.0424   84.5342    6.9146 C.3     1  UNL1        0.0215
     33 C          63.6816   84.5333   10.5631 C.3     1  UNL1        0.1209
     34 C          62.5269   83.6980   14.2670 C.ar    1  UNL1       -0.0207
     35 C          62.1873   82.2427   14.1366 C.ar    1  UNL1       -0.0034
     36 C          62.3458   81.5511   12.8151 C.ar    1  UNL1        0.0108
     37 C          62.8439   82.3146   11.6239 C.ar    1  UNL1        0.0553
     38 CL         63.0025   81.6230   10.3024 Cl      1  UNL1       -0.0825
     39 C          63.1835   83.7698   11.7542 C.ar    1  UNL1        0.0079
     40 C          63.0250   84.4616   13.0758 C.ar    1  UNL1       -0.0060
     41 C          62.3684   84.3897   15.5885 C.3     1  UNL1        0.0476
     42 C          63.4195   85.3482   16.0642 C.3     1  UNL1        0.0941
     43 C          63.0284   89.2511   16.6680 C.3     1  UNL1        0.0946
     44 C          63.4294   87.9462   16.0464 C.2     1  UNL1        0.2230
     45 O          64.2412   87.9344   14.7850 O.2     1  UNL1       -0.2751
     46 N          63.0185   86.6531   16.6860 N.am    1  UNL1       -0.3040
     47 H          62.4857   86.6608   17.5138 H       1  UNL1        0.1494
@<TRIPOS>BOND
     1    43    44    1
     2    44    45    2
     3    44    46   am
     4    46    42    1
     5    42    41    1
     6    41    34    1
     7    34    35   ar
     8    35    36   ar
     9    36    37   ar
    10    37    38    1
    11    37    39   ar
    12    39    33    1
    13    33    27    1
    14    27    28   am
    15    28    29    2
    16     1    28    1
    17     1     2    1
    18     2     3    1
    19     3     4    1
    20     4     5    1
    21     5     6    1
    22     6     8    1
    23     8     9   ar
    24     9    10   ar
    25    10    11   ar
    26    11    14    1
    27    14    15    1
    28    15    16    1
    29    16    17    1
    30    17    18    1
    31    18    19   ar
    32    19    20    1
    33    19    21   ar
    34    21    22   ar
    35    22    23    1
    36    22    24   ar
    37    24    25   ar
    38    25    26    1
    39    11    12   ar
    40    12    13   ar
    41    27    30    1
    42    30    31    1
    43    31    32    1
    44    39    40   ar
    45    40    34   ar
    46     6     1    1
    47    13     8   ar
    48    32    30    1
    49    25    18   ar
    50    46    47    1
    51     3     7    1
@<TRIPOS>MOLECULE
*****
 47 51 0 0 0
SMALL
GASTEIGER

@<TRIPOS>ATOM
      1 C          63.7863   90.8801   13.5935 C.3     1  UNL1        0.0964
      2 C          64.2317   92.1689   12.9686 C.3     1  UNL1        0.0780
      3 N          65.5707   92.7481   13.3172 N.3     1  UNL1       -0.2970
      4 C          66.4642   92.0386   14.2909 C.3     1  UNL1        0.0689
      5 C          66.0189   90.7497   14.9158 C.3     1  UNL1        0.0220
      6 C          64.6799   90.1705   14.5671 C.3     1  UNL1        0.0337
      7 H          65.3987   93.6781   13.6992 H       1  UNL1        0.1233
      8 C          64.2345   88.8817   15.1921 C.ar    1  UNL1       -0.0217
      9 C          64.5839   87.5743   14.5451 C.ar    1  UNL1       -0.0012
     10 C          64.1385   86.2855   15.1700 C.ar    1  UNL1        0.0366
     11 C          63.3437   86.3040   16.4420 C.ar    1  UNL1        0.1387
     12 C          62.9944   87.6114   17.0891 C.ar    1  UNL1        0.0366
     13 C          63.4398   88.9002   16.4641 C.ar    1  UNL1       -0.0012
     14 O          62.8984   85.0152   17.0670 O.3     1  UNL1       -0.4714
     15 C          62.2968   83.9371   16.2151 C.3     1  UNL1        0.2525
     16 C          63.0603   83.3927   15.0443 C.3     1  UNL1        0.2525
     17 O          62.5304   83.5753   13.6529 O.3     1  UNL1       -0.4697
     18 C          62.6735   82.4734   12.6453 C.ar    1  UNL1        0.1596
     19 C          63.2669   82.7613   11.2982 C.ar    1  UNL1        0.0921
     20 CL         63.7173   84.1512   10.9586 Cl      1  UNL1       -0.0791
     21 C          63.4100   81.6594   10.2905 C.ar    1  UNL1        0.0103
     22 C          62.9596   80.2695   10.6301 C.ar    1  UNL1       -0.0200
     23 C          63.1027   79.1676    9.6224 C.3     1  UNL1        0.0311
     24 C          62.3661   79.9815   11.9773 C.ar    1  UNL1        0.0103
     25 C          62.2231   81.0834   12.9849 C.ar    1  UNL1        0.0921
     26 CL         61.6296   80.7954   14.3320 Cl      1  UNL1       -0.0791
     27 N          61.9791   90.2989   11.8198 N.am    1  UNL1       -0.2770
     28 C          62.4473   90.3008   13.2448 C.2     1  UNL1        0.2270
     29 O          61.5766   89.7235   14.3211 O.2     1  UNL1       -0.2748
     30 C          62.8498   90.8763   10.7434 C.3     1  UNL1        0.0758
     31 C          63.0527   91.2772    9.3124 C.3     1  UNL1        0.0215
     32 C          64.1549   91.4753   10.3103 C.3     1  UNL1        0.0215
     33 C          60.6400   89.7197   11.4711 C.3     1  UNL1        0.1209
     34 C          59.8479   88.1407    7.9173 C.ar    1  UNL1       -0.0207
     35 C          60.2854   86.7222    8.1335 C.ar    1  UNL1       -0.0034
     36 C          60.8411   86.3030    9.4621 C.ar    1  UNL1        0.0108
     37 C          60.9593   87.3021   10.5747 C.ar    1  UNL1        0.0553
     38 CL         61.5150   86.8829   11.9033 Cl      1  UNL1       -0.0825
     39 C          60.5218   88.7205   10.3585 C.ar    1  UNL1        0.0079
     40 C          59.9661   89.1398    9.0298 C.ar    1  UNL1       -0.0060
     41 C          59.2922   88.5599    6.5886 C.3     1  UNL1        0.0476
     42 C          58.8944   89.9878    6.3588 C.3     1  UNL1        0.0941
     43 C          59.7437   92.7453    3.6339 C.3     1  UNL1        0.0946
     44 C          58.9688   91.8966    4.5978 C.2     1  UNL1        0.2230
     45 O          57.4931   92.1079    4.7646 O.2     1  UNL1       -0.2751
     46 N          59.6694   90.8366    5.3949 N.am    1  UNL1       -0.3040
     47 H          60.6379   90.6978    5.2855 H       1  UNL1        0.1494
@<TRIPOS>BOND
     1    43    44    1
     2    44    45    2
     3    44    46   am
     4    46    42    1
     5    42    41    1
     6    41    34    1
     7    34    35   ar
     8    35    36   ar
     9    36    37   ar
    10    37    38    1
    11    37    39   ar
    12    39    33    1
    13    33    27    1
    14    27    28   am
    15    28    29    2
    16     1    28    1
    17     1     2    1
    18     2     3    1
    19     3     4    1
    20     4     5    1
    21     5     6    1
    22     6     8    1
    23     8     9   ar
    24     9    10   ar
    25    10    11   ar
    26    11    14    1
    27    14    15    1
    28    15    16    1
    29    16    17    1
    30    17    18    1
    31    18    19   ar
    32    19    20    1
    33    19    21   ar
    34    21    22   ar
    35    22    23    1
    36    22    24   ar
    37    24    25   ar
    38    25    26    1
    39    11    12   ar
    40    12    13   ar
    41    27    30    1
    42    30    31    1
    43    31    32    1
    44    39    40   ar
    45    40    34   ar
    46     6     1    1
    47    13     8   ar
    48    32    30    1
    49    25    18   ar
    50    46    47    1
    51     3     7    1
@<TRIPOS>MOLECULE
*****
 47 51 0 0 0
SMALL
GASTEIGER

@<TRIPOS>ATOM
      1 C          60.1619   88.1192    9.7539 C.3     1  UNL1        0.0964
      2 C          59.2057   87.5291    8.7602 C.3     1  UNL1        0.0780
      3 N          59.0208   88.1781    7.4206 N.3     1  UNL1       -0.2970
      4 C          59.7922   89.4172    7.0747 C.3     1  UNL1        0.0689
      5 C          60.7484   90.0072    8.0684 C.3     1  UNL1        0.0220
      6 C          60.9333   89.3583    9.4080 C.3     1  UNL1        0.0337
      7 H          58.0319   88.4154    7.3424 H       1  UNL1        0.1233
      8 C          61.8895   89.9484   10.4017 C.ar    1  UNL1       -0.0217
      9 C          61.8274   89.5314   11.8412 C.ar    1  UNL1       -0.0012
     10 C          62.7837   90.1215   12.8349 C.ar    1  UNL1        0.0366
     11 C          63.8020   91.1285   12.3890 C.ar    1  UNL1        0.1387
     12 C          63.8641   91.5455   10.9495 C.ar    1  UNL1        0.0366
     13 C          62.9079   90.9554    9.9559 C.ar    1  UNL1       -0.0012
     14 O          64.7582   91.7186   13.3827 O.3     1  UNL1       -0.4714
     15 C          66.0303   92.3583   12.9109 C.3     1  UNL1        0.2525
     16 C          66.0177   93.7720   12.4095 C.3     1  UNL1        0.2525
     17 O          67.1244   94.2636   11.5243 O.3     1  UNL1       -0.4697
     18 C          66.8022   94.9116   10.2104 C.ar    1  UNL1        0.1596
     19 C          66.0031   96.1806   10.1760 C.ar    1  UNL1        0.0921
     20 CL         65.5262   96.8015   11.4555 Cl      1  UNL1       -0.0791
     21 C          65.6808   96.8286    8.8621 C.ar    1  UNL1        0.0103
     22 C          66.1576   96.2077    7.5827 C.ar    1  UNL1       -0.0200
     23 C          65.8353   96.8557    6.2688 C.3     1  UNL1        0.0311
     24 C          66.9568   94.9387    7.6170 C.ar    1  UNL1        0.0103
     25 C          67.2790   94.2907    8.9309 C.ar    1  UNL1        0.0921
     26 CL         68.0781   93.0217    8.9653 Cl      1  UNL1       -0.0791
     27 N          61.3583   86.3757   11.2636 N.am    1  UNL1       -0.2770
     28 C          60.3468   87.4702   11.0936 C.2     1  UNL1        0.2270
     29 O          59.5201   87.9156   12.2632 O.2     1  UNL1       -0.2748
     30 C          62.1851   85.9303   10.0939 C.3     1  UNL1        0.0758
     31 C          63.0977   84.9254    9.4558 C.3     1  UNL1        0.0215
     32 C          62.7043   86.1636    8.7062 C.3     1  UNL1        0.0215
     33 C          61.5432   85.7267   12.6032 C.3     1  UNL1        0.1209
     34 C          63.4709   82.2582   12.5407 C.ar    1  UNL1       -0.0207
     35 C          64.7699   82.6443   13.1839 C.ar    1  UNL1       -0.0034
     36 C          64.9933   84.0577   13.6335 C.ar    1  UNL1        0.0108
     37 C          63.9177   85.0852   13.4400 C.ar    1  UNL1        0.0553
     38 CL         64.1411   86.4986   13.8896 Cl      1  UNL1       -0.0825
     39 C          62.6187   84.6992   12.7968 C.ar    1  UNL1        0.0079
     40 C          62.3953   83.2857   12.3471 C.ar    1  UNL1       -0.0060
     41 C          63.2475   80.8448   12.0910 C.3     1  UNL1        0.0476
     42 C          62.7853   79.8095   13.0732 C.3     1  UNL1        0.0941
     43 C          59.0494   80.2692   14.3309 C.3     1  UNL1        0.0946
     44 C          60.5162   80.5085   14.1280 C.2     1  UNL1        0.2230
     45 O          61.1808   81.6863   14.7770 O.2     1  UNL1       -0.2751
     46 N          61.3185   79.5701   13.2761 N.am    1  UNL1       -0.3040
     47 H          60.8823   78.7971   12.8501 H       1  UNL1        0.1494
@<TRIPOS>BOND
     1    43    44    1
     2    44    45    2
     3    44    46   am
     4    46    42    1
     5    42    41    1
     6    41    34    1
     7    34    35   ar
     8    35    36   ar
     9    36    37   ar
    10    37    38    1
    11    37    39   ar
    12    39    33    1
    13    33    27    1
    14    27    28   am
    15    28    29    2
    16     1    28    1
    17     1     2    1
    18     2     3    1
    19     3     4    1
    20     4     5    1
    21     5     6    1
    22     6     8    1
    23     8     9   ar
    24     9    10   ar
    25    10    11   ar
    26    11    14    1
    27    14    15    1
    28    15    16    1
    29    16    17    1
    30    17    18    1
    31    18    19   ar
    32    19    20    1
    33    19    21   ar
    34    21    22   ar
    35    22    23    1
    36    22    24   ar
    37    24    25   ar
    38    25    26    1
    39    11    12   ar
    40    12    13   ar
    41    27    30    1
    42    30    31    1
    43    31    32    1
    44    39    40   ar
    45    40    34   ar
    46     6     1    1
    47    13     8   ar
    48    32    30    1
    49    25    18   ar
    50    46    47    1
    51     3     7    1
@<TRIPOS>MOLECULE
*****
 47 51 0 0 0
SMALL
GASTEIGER

@<TRIPOS>ATOM
      1 C          62.8374   84.2203   11.4206 C.3     1  UNL1        0.0964
      2 C          62.9559   83.3105   10.2340 C.3     1  UNL1        0.0780
      3 N          63.8698   82.1223   10.2882 N.3     1  UNL1       -0.2970
      4 C          64.6650   81.8439   11.5292 C.3     1  UNL1        0.0689
      5 C          64.5465   82.7537   12.7158 C.3     1  UNL1        0.0220
      6 C          63.6327   83.9419   12.6616 C.3     1  UNL1        0.0337
      7 H          64.5401   82.2313    9.5272 H       1  UNL1        0.1233
      8 C          63.5141   84.8518   13.8482 C.ar    1  UNL1       -0.0217
      9 C          62.6199   84.4785   14.9932 C.ar    1  UNL1       -0.0012
     10 C          62.5014   85.3883   16.1798 C.ar    1  UNL1        0.0366
     11 C          63.2771   86.6714   16.2215 C.ar    1  UNL1        0.1387
     12 C          64.1713   87.0447   15.0766 C.ar    1  UNL1        0.0366
     13 C          64.2899   86.1349   13.8899 C.ar    1  UNL1       -0.0012
     14 O          63.1585   87.5813   17.4082 O.3     1  UNL1       -0.4714
     15 C          63.1947   89.0688   17.2193 C.3     1  UNL1        0.2525
     16 C          62.8125   89.6665   15.8977 C.3     1  UNL1        0.2525
     17 O          63.2052   91.0769   15.5707 O.3     1  UNL1       -0.4697
     18 C          64.6543   91.4389   15.4322 C.ar    1  UNL1        0.1596
     19 C          65.4636   90.8747   14.3023 C.ar    1  UNL1        0.0921
     20 CL         64.8239   89.9484   13.3111 Cl      1  UNL1       -0.0791
     21 C          66.9127   91.2367   14.1638 C.ar    1  UNL1        0.0103
     22 C          67.5524   92.1630   15.1551 C.ar    1  UNL1       -0.0200
     23 C          69.0014   92.5251   15.0166 C.3     1  UNL1        0.0311
     24 C          66.7430   92.7273   16.2850 C.ar    1  UNL1        0.0103
     25 C          65.2940   92.3653   16.4235 C.ar    1  UNL1        0.0921
     26 CL         64.4846   92.9295   17.5533 Cl      1  UNL1       -0.0791
     27 N          61.6550   86.0890   10.0568 N.am    1  UNL1       -0.2770
     28 C          61.9235   85.4086   11.3663 C.2     1  UNL1        0.2270
     29 O          61.2782   85.9164   12.6216 O.2     1  UNL1       -0.2748
     30 C          62.3003   85.5812    8.8015 C.3     1  UNL1        0.0758
     31 C          62.1821   85.0239    7.4139 C.3     1  UNL1        0.0215
     32 C          63.5362   85.2589    8.0150 C.3     1  UNL1        0.0215
     33 C          60.7411   87.2773   10.0024 C.3     1  UNL1        0.1209
     34 C          62.8927   90.5595   10.5922 C.ar    1  UNL1       -0.0207
     35 C          62.0929   91.2333   11.6677 C.ar    1  UNL1       -0.0034
     36 C          60.8425   90.5883   12.1879 C.ar    1  UNL1        0.0108
     37 C          60.3919   89.2697   11.6329 C.ar    1  UNL1        0.0553
     38 CL         59.1416   88.6248   12.1532 Cl      1  UNL1       -0.0825
     39 C          61.1917   88.5959   10.5575 C.ar    1  UNL1        0.0079
     40 C          62.4421   89.2408   10.0372 C.ar    1  UNL1       -0.0060
     41 C          64.1430   91.2044   10.0720 C.3     1  UNL1        0.0476
     42 C          64.7704   92.3399   10.8250 C.3     1  UNL1        0.0941
     43 C          67.6715   94.6091    9.3470 C.3     1  UNL1        0.0946
     44 C          66.9700   93.5122   10.0917 C.2     1  UNL1        0.2230
     45 O          67.7665   92.4905   10.8479 O.2     1  UNL1       -0.2751
     46 N          65.4719   93.4369   10.0802 N.am    1  UNL1       -0.3040
     47 H          64.9491   94.1074    9.5839 H       1  UNL1        0.1494
@<TRIPOS>BOND
     1    43    44    1
     2    44    45    2
     3    44    46   am
     4    46    42    1
     5    42    41    1
     6    41    34    1
     7    34    35   ar
     8    35    36   ar
     9    36    37   ar
    10    37    38    1
    11    37    39   ar
    12    39    33    1
    13    33    27    1
    14    27    28   am
    15    28    29    2
    16     1    28    1
    17     1     2    1
    18     2     3    1
    19     3     4    1
    20     4     5    1
    21     5     6    1
    22     6     8    1
    23     8     9   ar
    24     9    10   ar
    25    10    11   ar
    26    11    14    1
    27    14    15    1
    28    15    16    1
    29    16    17    1
    30    17    18    1
    31    18    19   ar
    32    19    20    1
    33    19    21   ar
    34    21    22   ar
    35    22    23    1
    36    22    24   ar
    37    24    25   ar
    38    25    26    1
    39    11    12   ar
    40    12    13   ar
    41    27    30    1
    42    30    31    1
    43    31    32    1
    44    39    40   ar
    45    40    34   ar
    46     6     1    1
    47    13     8   ar
    48    32    30    1
    49    25    18   ar
    50    46    47    1
    51     3     7    1
@<TRIPOS>MOLECULE
*****
 47 51 0 0 0
SMALL
GASTEIGER

@<TRIPOS>ATOM
      1 C          63.4124   86.6621   12.9686 C.3     1  UNL1        0.0964
      2 C          64.2348   86.0082   14.0393 C.3     1  UNL1        0.0780
      3 N          64.2365   84.5146   14.1766 N.3     1  UNL1       -0.2970
      4 C          63.4158   83.6747   13.2433 C.3     1  UNL1        0.0689
      5 C          62.5934   84.3285   12.1727 C.3     1  UNL1        0.0220
      6 C          62.5917   85.8222   12.0353 C.3     1  UNL1        0.0337
      7 H          63.9142   84.3054   15.1214 H       1  UNL1        0.1233
      8 C          61.7693   86.4760   10.9647 C.ar    1  UNL1       -0.0217
      9 C          62.0955   86.2407    9.5197 C.ar    1  UNL1       -0.0012
     10 C          61.2731   86.8945    8.4491 C.ar    1  UNL1        0.0366
     11 C          60.1246   87.7836    8.8235 C.ar    1  UNL1        0.1387
     12 C          59.7984   88.0190   10.2685 C.ar    1  UNL1        0.0366
     13 C          60.6208   87.3652   11.3391 C.ar    1  UNL1       -0.0012
     14 O          59.3022   88.4374    7.7529 O.3     1  UNL1       -0.4714
     15 C          59.6733   89.8008    7.2496 C.3     1  UNL1        0.2525
     16 C          59.9496   90.0122    5.7905 C.3     1  UNL1        0.2525
     17 O          61.1091   90.8620    5.3620 O.3     1  UNL1       -0.4697
     18 C          61.0510   91.6103    4.0633 C.ar    1  UNL1        0.1596
     19 C          59.8103   92.3647    3.6872 C.ar    1  UNL1        0.0921
     20 CL         58.6277   92.3708    4.6098 Cl      1  UNL1       -0.0791
     21 C          59.7523   93.1129    2.3884 C.ar    1  UNL1        0.0103
     22 C          60.9349   93.1068    1.4658 C.ar    1  UNL1       -0.0200
     23 C          60.8769   93.8550    0.1670 C.3     1  UNL1        0.0311
     24 C          62.1757   92.3523    1.8419 C.ar    1  UNL1        0.0103
     25 C          62.2337   91.6041    3.1407 C.ar    1  UNL1        0.0921
     26 CL         63.4744   90.8497    3.5168 Cl      1  UNL1       -0.0791
     27 N          63.3713   89.0214   14.0557 N.am    1  UNL1       -0.2770
     28 C          63.4107   88.1558   12.8313 C.2     1  UNL1        0.2270
     29 O          63.4484   88.7838   11.4697 O.2     1  UNL1       -0.2748
     30 C          63.3336   88.3934   15.4174 C.3     1  UNL1        0.0758
     31 C          63.5239   87.1970   16.3018 C.3     1  UNL1        0.0215
     32 C          63.0780   88.5021   16.8914 C.3     1  UNL1        0.0215
     33 C          63.3696   90.5152   13.9184 C.3     1  UNL1        0.1209
     34 C          66.8132   92.2241   12.9326 C.ar    1  UNL1       -0.0207
     35 C          67.2266   92.8095   14.2504 C.ar    1  UNL1       -0.0034
     36 C          66.3544   92.6300   15.4575 C.ar    1  UNL1        0.0108
     37 C          65.0687   91.8653   15.3468 C.ar    1  UNL1        0.0553
     38 CL         64.1965   91.6858   16.5538 Cl      1  UNL1       -0.0825
     39 C          64.6553   91.2800   14.0291 C.ar    1  UNL1        0.0079
     40 C          65.5275   91.4594   12.8219 C.ar    1  UNL1       -0.0060
     41 C          67.6854   92.4036   11.7256 C.3     1  UNL1        0.0476
     42 C          67.0810   92.8276   10.4199 C.3     1  UNL1        0.0941
     43 C          67.3428   96.6808    9.5065 C.3     1  UNL1        0.0946
     44 C          66.8978   95.4062   10.1601 C.2     1  UNL1        0.2230
     45 O          65.8245   95.4354   11.2076 O.2     1  UNL1       -0.2751
     46 N          67.5261   94.1023    9.7662 N.am    1  UNL1       -0.3040
     47 H          68.2305   94.0831    9.0787 H       1  UNL1        0.1494
@<TRIPOS>BOND
     1    43    44    1
     2    44    45    2
     3    44    46   am
     4    46    42    1
     5    42    41    1
     6    41    34    1
     7    34    35   ar
     8    35    36   ar
     9    36    37   ar
    10    37    38    1
    11    37    39   ar
    12    39    33    1
    13    33    27    1
    14    27    28   am
    15    28    29    2
    16     1    28    1
    17     1     2    1
    18     2     3    1
    19     3     4    1
    20     4     5    1
    21     5     6    1
    22     6     8    1
    23     8     9   ar
    24     9    10   ar
    25    10    11   ar
    26    11    14    1
    27    14    15    1
    28    15    16    1
    29    16    17    1
    30    17    18    1
    31    18    19   ar
    32    19    20    1
    33    19    21   ar
    34    21    22   ar
    35    22    23    1
    36    22    24   ar
    37    24    25   ar
    38    25    26    1
    39    11    12   ar
    40    12    13   ar
    41    27    30    1
    42    30    31    1
    43    31    32    1
    44    39    40   ar
    45    40    34   ar
    46     6     1    1
    47    13     8   ar
    48    32    30    1
    49    25    18   ar
    50    46    47    1
    51     3     7    1
@<TRIPOS>MOLECULE
*****
 47 51 0 0 0
SMALL
GASTEIGER

@<TRIPOS>ATOM
      1 C          62.6090   84.5635   12.8831 C.3     1  UNL1        0.0964
      2 C          62.2639   83.1043   12.9245 C.3     1  UNL1        0.0780
      3 N          62.4369   82.3285   14.1965 N.3     1  UNL1       -0.2970
      4 C          62.9551   83.0118   15.4271 C.3     1  UNL1        0.0689
      5 C          63.3002   84.4710   15.3857 C.3     1  UNL1        0.0220
      6 C          63.1271   85.2468   14.1137 C.3     1  UNL1        0.0337
      7 H          63.0811   81.5649   13.9904 H       1  UNL1        0.1233
      8 C          63.4722   86.7060   14.0723 C.ar    1  UNL1       -0.0217
      9 C          63.7524   87.4468   15.3461 C.ar    1  UNL1       -0.0012
     10 C          64.0975   88.9060   15.3046 C.ar    1  UNL1        0.0366
     11 C          64.1624   89.6243   13.9895 C.ar    1  UNL1        0.1387
     12 C          63.8822   88.8835   12.7157 C.ar    1  UNL1        0.0366
     13 C          63.5371   87.4243   12.7571 C.ar    1  UNL1       -0.0012
     14 O          64.5075   91.0835   13.9481 O.3     1  UNL1       -0.4714
     15 C          65.8303   91.5260   13.3963 C.3     1  UNL1        0.2525
     16 C          65.8808   92.3875   12.1694 C.3     1  UNL1        0.2525
     17 O          66.9930   93.3788   11.9943 O.3     1  UNL1       -0.4697
     18 C          67.0381   94.2472   10.7721 C.ar    1  UNL1        0.1596
     19 C          67.5468   93.6911    9.4752 C.ar    1  UNL1        0.0921
     20 CL         68.0104   92.2665    9.4006 Cl      1  UNL1       -0.0791
     21 C          67.5919   94.5595    8.2530 C.ar    1  UNL1        0.0103
     22 C          67.1283   95.9841    8.3277 C.ar    1  UNL1       -0.0200
     23 C          67.1734   96.8525    7.1055 C.3     1  UNL1        0.0311
     24 C          66.6195   96.5403    9.6246 C.ar    1  UNL1        0.0103
     25 C          66.5744   95.6719   10.8468 C.ar    1  UNL1        0.0921
     26 CL         66.0657   96.2280   12.1436 Cl      1  UNL1       -0.0791
     27 N          63.0386   84.8314   10.3348 N.am    1  UNL1       -0.2770
     28 C          62.4358   85.3393   11.6109 C.2     1  UNL1        0.2270
     29 O          61.6599   86.6230   11.6151 O.2     1  UNL1       -0.2748
     30 C          63.8145   83.5476   10.3306 C.3     1  UNL1        0.0758
     31 C          64.9895   82.7385   10.7939 C.3     1  UNL1        0.0215
     32 C          63.9834   82.1334    9.8602 C.3     1  UNL1        0.0215
     33 C          62.8655   85.6072    9.0627 C.3     1  UNL1        0.1209
     34 C          61.4686   89.2713    9.6736 C.ar    1  UNL1       -0.0207
     35 C          60.1482   89.1928    8.9662 C.ar    1  UNL1       -0.0034
     36 C          59.7336   87.9192    8.2909 C.ar    1  UNL1        0.0108
     37 C          60.6394   86.7240    8.3231 C.ar    1  UNL1        0.0553
     38 CL         60.2248   85.4504    7.6479 Cl      1  UNL1       -0.0825
     39 C          61.9597   86.8024    9.0305 C.ar    1  UNL1        0.0079
     40 C          62.3744   88.0761    9.7058 C.ar    1  UNL1       -0.0060
     41 C          61.8832   90.5449   10.3488 C.3     1  UNL1        0.0476
     42 C          61.5085   90.7913   11.7803 C.3     1  UNL1        0.0941
     43 C          58.2472   88.9550   13.1001 C.3     1  UNL1        0.0946
     44 C          59.1324   89.9274   12.3785 C.2     1  UNL1        0.2230
     45 O          58.5266   91.0087   11.5334 O.2     1  UNL1       -0.2751
     46 N          60.6233   89.8187   12.5019 N.am    1  UNL1       -0.3040
     47 H          61.0209   89.1091   13.0565 H       1  UNL1        0.1494
@<TRIPOS>BOND
     1    43    44    1
     2    44    45    2
     3    44    46   am
     4    46    42    1
     5    42    41    1
     6    41    34    1
     7    34    35   ar
     8    35    36   ar
     9    36    37   ar
    10    37    38    1
    11    37    39   ar
    12    39    33    1
    13    33    27    1
    14    27    28   am
    15    28    29    2
    16     1    28    1
    17     1     2    1
    18     2     3    1
    19     3     4    1
    20     4     5    1
    21     5     6    1
    22     6     8    1
    23     8     9   ar
    24     9    10   ar
    25    10    11   ar
    26    11    14    1
    27    14    15    1
    28    15    16    1
    29    16    17    1
    30    17    18    1
    31    18    19   ar
    32    19    20    1
    33    19    21   ar
    34    21    22   ar
    35    22    23    1
    36    22    24   ar
    37    24    25   ar
    38    25    26    1
    39    11    12   ar
    40    12    13   ar
    41    27    30    1
    42    30    31    1
    43    31    32    1
    44    39    40   ar
    45    40    34   ar
    46     6     1    1
    47    13     8   ar
    48    32    30    1
    49    25    18   ar
    50    46    47    1
    51     3     7    1
