@<TRIPOS>MOLECULE
*****
 37 43 0 0 0
SMALL
GASTEIGER

@<TRIPOS>ATOM
      1 C          59.2214   90.2081    5.9057 C.2     1  UNL1        0.1040
      2 N          57.8293   90.7655    5.9434 N.2     1  UNL1       -0.1483
      3 N          57.7462   91.8739    4.9362 N.2     1  UNL1       -0.1520
      4 C          59.0871   92.0015    4.2759 C.2     1  UNL1        0.0860
      5 C          59.5956   92.9222    3.2065 C.3     1  UNL1        0.0697
      6 C          61.0158   92.8134    2.7363 C.2     1  UNL1       -0.0378
      7 C          61.9275   91.7839    3.3354 C.2     1  UNL1       -0.0080
      8 C          61.4190   90.8632    4.4049 C.2     1  UNL1        0.0022
      9 C          59.9987   90.9720    4.8751 C.2     1  UNL1        0.0350
     10 C          61.5244   93.7341    1.6668 C.3     1  UNL1        0.0315
     11 C          62.4332   94.8464    1.2345 C.3     1  UNL1        0.0179
     12 C          61.4965   94.2165    0.2467 C.3     1  UNL1        0.0930
     13 C          60.4338   93.2666   -0.2206 C.2     1  UNL1        0.2326
     14 O          59.7416   92.2350    0.6200 O.2     1  UNL1       -0.2742
     15 N          60.1850   93.5293   -1.6763 N.am    1  UNL1       -0.2569
     16 C          59.2002   92.8067   -2.5470 C.3     1  UNL1        0.1200
     17 C          61.0938   94.6416   -2.1086 C.ar    1  UNL1        0.0503
     18 C          61.2880   95.3226   -3.4309 C.ar    1  UNL1        0.0146
     19 C          62.2928   96.4283   -3.5647 C.ar    1  UNL1        0.0013
     20 C          63.1033   96.8530   -2.3761 C.ar    1  UNL1       -0.0002
     21 C          62.9091   96.1720   -1.0538 C.ar    1  UNL1       -0.0026
     22 C          61.9044   95.0663   -0.9201 C.ar    1  UNL1       -0.0006
     23 C          60.1092   89.3304    8.1842 C.2     1  UNL1        0.0031
     24 C          59.7443   89.0841    6.7503 C.2     1  UNL1        0.0210
     25 C          61.6779   85.9585   10.7178 C.ar    1  UNL1        0.1318
     26 C          61.5977   85.8027    9.2281 C.ar    1  UNL1        0.0343
     27 C          61.0748   86.9267    8.3835 C.ar    1  UNL1        0.0044
     28 C          60.6321   88.2064    9.0287 C.ar    1  UNL1        0.0193
     29 C          60.7122   88.3622   10.5185 C.ar    1  UNL1        0.1003
     30 N          61.2351   87.2382   11.3630 N.ar    1  UNL1       -0.2292
     31 C          63.7694   81.4627   14.0962 C.3     1  UNL1        0.0897
     32 N          63.2465   82.5867   13.2516 N.3     1  UNL1       -0.2686
     33 C          63.1404   82.4208   11.7646 C.3     1  UNL1        0.0939
     34 C          62.6176   83.5447   10.9200 C.3     1  UNL1        0.1095
     35 N          62.2008   84.8345   11.5624 N.pl3   1  UNL1       -0.2904
     36 C          62.3068   85.0003   13.0494 C.3     1  UNL1        0.1095
     37 C          62.8297   83.8764   13.8940 C.3     1  UNL1        0.0939
@<TRIPOS>BOND
     1    31    32    1
     2    32    33    1
     3    33    34    1
     4    34    35    1
     5    35    25    1
     6    25    26   ar
     7    26    27   ar
     8    27    28   ar
     9    28    23    1
    10    23    24    2
    11    24     1    1
    12     1     2    2
    13     2     3    1
    14     3     4    2
    15     4     5    1
    16     5     6    1
    17    10     6    1
    18    10    11    1
    19    12    11    1
    20    12    13    1
    21    13    14    2
    22    13    15   am
    23    15    16    1
    24    15    17    1
    25    17    18   ar
    26    18    19   ar
    27    19    20   ar
    28    20    21   ar
    29    21    22   ar
    30     6     7    2
    31     7     8    1
    32     8     9    2
    33    28    29   ar
    34    29    30   ar
    35    35    36    1
    36    36    37    1
    37    37    32    1
    38    30    25   ar
    39     9     1    1
    40     9     4    1
    41    12    10    1
    42    22    17   ar
    43    22    12    1
@<TRIPOS>MOLECULE
*****
 37 43 0 0 0
SMALL
GASTEIGER

@<TRIPOS>ATOM
      1 C          59.7992   90.8508    5.5633 C.2     1  UNL1        0.1040
      2 N          58.3697   91.3052    5.5597 N.2     1  UNL1       -0.1483
      3 N          58.1412   92.1068    4.3126 N.2     1  UNL1       -0.1520
      4 C          59.4296   92.1478    3.5454 C.2     1  UNL1        0.0860
      5 C          59.8021   92.7917    2.2429 C.3     1  UNL1        0.0697
      6 C          61.1992   92.6592    1.7133 C.2     1  UNL1       -0.0378
      7 C          62.2238   91.8829    2.4863 C.2     1  UNL1       -0.0080
      8 C          61.8514   91.2390    3.7888 C.2     1  UNL1        0.0022
      9 C          60.4543   91.3715    4.3184 C.2     1  UNL1        0.0350
     10 C          61.5717   93.3031    0.4107 C.3     1  UNL1        0.0315
     11 C          61.3881   93.4360   -1.0720 C.3     1  UNL1        0.0179
     12 C          62.4006   94.2855   -0.3626 C.3     1  UNL1        0.0930
     13 C          63.1739   94.7996    0.8153 C.2     1  UNL1        0.2326
     14 O          63.0201   94.3465    2.2369 O.2     1  UNL1       -0.2742
     15 N          64.1282   95.8465    0.3220 N.am    1  UNL1       -0.2569
     16 C          65.0962   96.6241    1.1637 C.3     1  UNL1        0.1200
     17 C          63.9446   95.9794   -1.1608 C.ar    1  UNL1        0.0503
     18 C          64.6117   96.8543   -2.1804 C.ar    1  UNL1        0.0146
     19 C          64.2111   96.7643   -3.6230 C.ar    1  UNL1        0.0013
     20 C          63.1433   95.7995   -4.0461 C.ar    1  UNL1       -0.0002
     21 C          62.4762   94.9247   -3.0266 C.ar    1  UNL1       -0.0026
     22 C          62.8768   95.0146   -1.5839 C.ar    1  UNL1       -0.0006
     23 C          59.6657   88.9860    7.3675 C.2     1  UNL1        0.0031
     24 C          60.4580   90.0212    6.6253 C.2     1  UNL1        0.0210
     25 C          61.6421   86.4974   10.5535 C.ar    1  UNL1        0.1318
     26 C          61.5532   87.9863   10.7123 C.ar    1  UNL1        0.0343
     27 C          60.8944   88.8159    9.6503 C.ar    1  UNL1        0.0044
     28 C          60.3245   88.1565    8.4295 C.ar    1  UNL1        0.0193
     29 C          60.4134   86.6676    8.2706 C.ar    1  UNL1        0.1003
     30 N          61.0722   85.8380    9.3326 N.ar    1  UNL1       -0.2292
     31 C          64.2772   83.1790   14.8014 C.3     1  UNL1        0.0897
     32 N          63.6184   84.0086   13.7394 N.3     1  UNL1       -0.2686
     33 C          63.7194   85.5045   13.7859 C.3     1  UNL1        0.0939
     34 C          63.0607   86.3341   12.7240 C.3     1  UNL1        0.1095
     35 N          62.3009   85.6678   11.6155 N.pl3   1  UNL1       -0.2904
     36 C          62.1999   84.1719   11.5690 C.3     1  UNL1        0.1095
     37 C          62.8586   83.3423   12.6309 C.3     1  UNL1        0.0939
@<TRIPOS>BOND
     1    31    32    1
     2    32    33    1
     3    33    34    1
     4    34    35    1
     5    35    25    1
     6    25    26   ar
     7    26    27   ar
     8    27    28   ar
     9    28    23    1
    10    23    24    2
    11    24     1    1
    12     1     2    2
    13     2     3    1
    14     3     4    2
    15     4     5    1
    16     5     6    1
    17    10     6    1
    18    10    11    1
    19    12    11    1
    20    12    13    1
    21    13    14    2
    22    13    15   am
    23    15    16    1
    24    15    17    1
    25    17    18   ar
    26    18    19   ar
    27    19    20   ar
    28    20    21   ar
    29    21    22   ar
    30     6     7    2
    31     7     8    1
    32     8     9    2
    33    28    29   ar
    34    29    30   ar
    35    35    36    1
    36    36    37    1
    37    37    32    1
    38    30    25   ar
    39     9     1    1
    40     9     4    1
    41    12    10    1
    42    22    17   ar
    43    22    12    1
@<TRIPOS>MOLECULE
*****
 37 43 0 0 0
SMALL
GASTEIGER

@<TRIPOS>ATOM
      1 C          59.9085   90.7809    5.1553 C.2     1  UNL1        0.1040
      2 N          58.5341   91.3724    5.2616 N.2     1  UNL1       -0.1483
      3 N          58.3942   92.4150    4.1923 N.2     1  UNL1       -0.1520
      4 C          59.6821   92.4679    3.4251 C.2     1  UNL1        0.0860
      5 C          60.1235   93.3051    2.2615 C.3     1  UNL1        0.0697
      6 C          61.5009   93.1325    1.6930 C.2     1  UNL1       -0.0378
      7 C          62.4367   92.1226    2.2882 C.2     1  UNL1       -0.0080
      8 C          61.9953   91.2853    3.4518 C.2     1  UNL1        0.0022
      9 C          60.6180   91.4580    4.0203 C.2     1  UNL1        0.0350
     10 C          61.9424   93.9698    0.5293 C.3     1  UNL1        0.0315
     11 C          62.8327   95.0329   -0.0424 C.3     1  UNL1        0.0179
     12 C          61.8167   94.3569   -0.9144 C.3     1  UNL1        0.0930
     13 C          60.7088   93.3987   -1.2377 C.2     1  UNL1        0.2326
     14 O          60.0657   92.4391   -0.2808 O.2     1  UNL1       -0.2742
     15 N          60.3570   93.5685   -2.6859 N.am    1  UNL1       -0.2569
     16 C          59.3003   92.8086   -3.4315 C.3     1  UNL1        0.1200
     17 C          61.2474   94.6317   -3.2577 C.ar    1  UNL1        0.0503
     18 C          61.3533   95.2190   -4.6338 C.ar    1  UNL1        0.0146
     19 C          62.3613   96.2936   -4.9151 C.ar    1  UNL1        0.0013
     20 C          63.2634   96.7808   -3.8202 C.ar    1  UNL1       -0.0002
     21 C          63.1575   96.1935   -2.4441 C.ar    1  UNL1       -0.0026
     22 C          62.1495   95.1189   -2.1628 C.ar    1  UNL1       -0.0006
     23 C          59.8736   89.4386    7.3795 C.2     1  UNL1        0.0031
     24 C          60.4741   89.7018    6.0304 C.2     1  UNL1        0.0210
     25 C          61.5703   86.2015   10.0047 C.ar    1  UNL1        0.1318
     26 C          60.7761   85.8386    8.7850 C.ar    1  UNL1        0.0343
     27 C          60.2105   86.9177    7.9099 C.ar    1  UNL1        0.0044
     28 C          60.4391   88.3596    8.2545 C.ar    1  UNL1        0.0193
     29 C          61.2333   88.7224    9.4743 C.ar    1  UNL1        0.1003
     30 N          61.7989   87.6433   10.3493 N.ar    1  UNL1       -0.2292
     31 C          63.8327   81.8854   13.5052 C.3     1  UNL1        0.0897
     32 N          63.2671   82.9644   12.6301 N.3     1  UNL1       -0.2686
     33 C          62.9094   82.6636   11.2047 C.3     1  UNL1        0.0939
     34 C          62.3438   83.7426   10.3296 C.3     1  UNL1        0.1095
     35 N          62.1359   85.1224   10.8798 N.pl3   1  UNL1       -0.2904
     36 C          62.4936   85.4233   12.3052 C.3     1  UNL1        0.1095
     37 C          63.0592   84.3443   13.1803 C.3     1  UNL1        0.0939
@<TRIPOS>BOND
     1    31    32    1
     2    32    33    1
     3    33    34    1
     4    34    35    1
     5    35    25    1
     6    25    26   ar
     7    26    27   ar
     8    27    28   ar
     9    28    23    1
    10    23    24    2
    11    24     1    1
    12     1     2    2
    13     2     3    1
    14     3     4    2
    15     4     5    1
    16     5     6    1
    17    10     6    1
    18    10    11    1
    19    12    11    1
    20    12    13    1
    21    13    14    2
    22    13    15   am
    23    15    16    1
    24    15    17    1
    25    17    18   ar
    26    18    19   ar
    27    19    20   ar
    28    20    21   ar
    29    21    22   ar
    30     6     7    2
    31     7     8    1
    32     8     9    2
    33    28    29   ar
    34    29    30   ar
    35    35    36    1
    36    36    37    1
    37    37    32    1
    38    30    25   ar
    39     9     1    1
    40     9     4    1
    41    12    10    1
    42    22    17   ar
    43    22    12    1
