@<TRIPOS>MOLECULE
*****
 44 50 0 0 0
SMALL
GASTEIGER

@<TRIPOS>ATOM
      1 N          60.2304   92.5168    2.1551 N.pl3   1  UNL1       -0.2543
      2 C          58.9863   92.7496    1.3502 C.3     1  UNL1        0.1203
      3 C          59.0725   93.4296    0.0160 C.3     1  UNL1        0.1216
      4 N          60.4028   93.8768   -0.5133 N.am    1  UNL1       -0.2403
      5 C          60.4890   94.5569   -1.8475 C.2     1  UNL1        0.3078
      6 O          61.8194   95.0041   -2.3768 O.2     1  UNL1       -0.2522
      7 N          59.2449   94.7897   -2.6524 N.am    1  UNL1       -0.2901
      8 C          61.6470   93.6440    0.2916 C.ar    1  UNL1        0.0690
      9 C          62.9773   94.0913   -0.2377 C.ar    1  UNL1        0.0162
     10 C          64.2214   93.8585    0.5673 C.ar    1  UNL1        0.0014
     11 C          64.1353   93.1784    1.9015 C.ar    1  UNL1        0.0014
     12 C          62.8049   92.7312    2.4308 C.ar    1  UNL1        0.0162
     13 C          61.5608   92.9640    1.6259 C.ar    1  UNL1        0.0678
     14 H          58.3717   94.4962   -2.3050 H       1  UNL1        0.1509
     15 C          59.3311   95.4697   -3.9866 C.3     1  UNL1        0.0732
     16 C          60.6320   95.4948   -4.7330 C.3     1  UNL1        0.0215
     17 C          59.4173   96.1498   -5.3208 C.3     1  UNL1        0.0019
     18 C          59.5035   96.8298   -6.6550 C.3     1  UNL1        0.0036
     19 C          58.2026   96.8048   -5.9086 C.3     1  UNL1        0.0019
     20 C          58.1164   96.1247   -4.5744 C.3     1  UNL1        0.0215
     21 C          60.5667   96.5636   -6.7220 C.3     1  UNL1        0.0418
     22 C          62.0190   96.1999   -6.8136 C.3     1  UNL1        0.1376
     23 C          60.8044   96.8548   -7.4014 C.3     1  UNL1        0.0402
     24 C          61.9329   95.5198   -5.4794 C.3     1  UNL1        0.0418
     25 O          63.3199   96.2249   -7.5600 O.3     1  UNL1       -0.4421
     26 C          64.5251   95.5376   -6.9898 C.2     1  UNL1        0.3982
     27 N          65.6462   96.3479   -6.4097 N.am    1  UNL1       -0.2950
     28 O          64.6093   94.0400   -6.9997 O.2     1  UNL1       -0.2267
     29 H          65.5910   97.3309   -6.4032 H       1  UNL1        0.1482
     30 H          66.4372   95.8969   -6.0355 H       1  UNL1        0.1482
     31 C          59.9718   90.4766    6.1578 C.ar    1  UNL1        0.0384
     32 C          61.2719   90.4988    5.4099 C.ar    1  UNL1        0.1033
     33 N          61.3580   91.1789    4.0757 N.ar    1  UNL1       -0.2118
     34 C          60.1442   91.8367    3.4894 C.ar    1  UNL1        0.2241
     35 N          58.8441   91.8146    4.2373 N.ar    1  UNL1       -0.2118
     36 C          58.7579   91.1345    5.5715 C.ar    1  UNL1        0.1033
     37 C          59.7132   88.4365   10.1604 C.ar    1  UNL1        0.1387
     38 C          60.2323   89.8408   10.0665 C.ar    1  UNL1        0.0369
     39 C          60.3185   90.5208    8.7323 C.ar    1  UNL1        0.0032
     40 C          59.8856   89.7966    7.4920 C.ar    1  UNL1        0.0032
     41 C          59.3666   88.3924    7.5859 C.ar    1  UNL1        0.0032
     42 C          59.2805   87.7124    8.9202 C.ar    1  UNL1        0.0369
     43 C          59.1430   88.5165   12.6939 C.3     1  UNL1        0.2525
     44 O          59.6270   87.7565   11.4946 O.3     1  UNL1       -0.4714
@<TRIPOS>BOND
     1    43    44    1
     2    44    37    1
     3    37    38   ar
     4    38    39   ar
     5    39    40   ar
     6    40    31    1
     7    31    32   ar
     8    32    33   ar
     9    33    34   ar
    10    34     1    1
    11     1     2    1
    12     2     3    1
    13     3     4    1
    14     4     5   am
    15     5     6    2
    16     5     7   am
    17    15     7    1
    18    15    16    1
    19    16    17    1
    20    17    18    1
    21    18    19    1
    22    19    20    1
    23    20    21    1
    24    21    22    1
    25    22    25    1
    26    25    26    1
    27    26    27   am
    28    26    28    2
    29    22    23    1
    30    22    24    1
    31     4     8    1
    32     8     9   ar
    33     9    10   ar
    34    10    11   ar
    35    11    12   ar
    36    12    13   ar
    37    34    35   ar
    38    35    36   ar
    39    40    41   ar
    40    41    42   ar
    41    42    37   ar
    42    36    31   ar
    43    13     1    1
    44    20    15    1
    45    13     8   ar
    46    24    16    1
    47    23    18    1
    48     7    14    1
    49    27    29    1
    50    27    30    1
@<TRIPOS>MOLECULE
*****
 44 50 0 0 0
SMALL
GASTEIGER

@<TRIPOS>ATOM
      1 N          59.6114   92.5379    2.0793 N.pl3   1  UNL1       -0.2543
      2 C          58.3485   92.4680    1.2731 C.3     1  UNL1        0.1203
      3 C          58.2540   93.1923   -0.0370 C.3     1  UNL1        0.1216
      4 N          59.4224   93.9865   -0.5409 N.am    1  UNL1       -0.2403
      5 C          59.3279   94.7108   -1.8511 C.2     1  UNL1        0.3078
      6 O          60.4965   95.5050   -2.3550 O.2     1  UNL1       -0.2522
      7 N          58.0650   94.6408   -2.6573 N.am    1  UNL1       -0.2901
      8 C          60.6854   94.0564    0.2653 C.ar    1  UNL1        0.0690
      9 C          61.8539   94.8506   -0.2386 C.ar    1  UNL1        0.0162
     10 C          63.1168   94.9205    0.5677 C.ar    1  UNL1        0.0014
     11 C          63.2113   94.1962    1.8778 C.ar    1  UNL1        0.0014
     12 C          62.0429   93.4020    2.3817 C.ar    1  UNL1        0.0162
     13 C          60.7799   93.3321    1.5755 C.ar    1  UNL1        0.0678
     14 H          57.2981   94.1196   -2.3266 H       1  UNL1        0.1509
     15 C          57.9705   95.3651   -3.9675 C.3     1  UNL1        0.0732
     16 C          56.6712   95.3940   -4.7165 C.3     1  UNL1        0.0215
     17 C          57.8760   96.0894   -5.2776 C.3     1  UNL1        0.0019
     18 C          57.7815   96.8137   -6.5878 C.3     1  UNL1        0.0036
     19 C          59.0808   96.7849   -5.8387 C.3     1  UNL1        0.0019
     20 C          59.1753   96.0606   -4.5286 C.3     1  UNL1        0.0215
     21 C          56.7232   96.5320   -6.6672 C.3     1  UNL1        0.0418
     22 C          55.2774   96.1471   -6.7757 C.3     1  UNL1        0.1376
     23 C          56.4822   96.8425   -7.3368 C.3     1  UNL1        0.0402
     24 C          55.3719   95.4228   -5.4655 C.3     1  UNL1        0.0418
     25 O          53.9782   96.1759   -7.5247 O.3     1  UNL1       -0.4421
     26 C          52.6820   96.0308   -6.7839 C.2     1  UNL1        0.3982
     27 N          51.5254   95.3249   -7.4272 N.am    1  UNL1       -0.2950
     28 O          52.5424   96.5916   -5.3997 O.2     1  UNL1       -0.2267
     29 H          51.6170   94.9568   -8.3357 H       1  UNL1        0.1482
     30 H          50.6746   95.2297   -6.9410 H       1  UNL1        0.1482
     31 C          59.8949   90.3650    6.0098 C.ar    1  UNL1        0.0384
     32 C          61.1118   90.5137    5.1455 C.ar    1  UNL1        0.1033
     33 N          61.0173   91.2380    3.8354 N.ar    1  UNL1       -0.2118
     34 C          59.7059   91.8136    3.3895 C.ar    1  UNL1        0.2241
     35 N          58.4889   91.6649    4.2537 N.ar    1  UNL1       -0.2118
     36 C          58.5834   90.9406    5.5639 C.ar    1  UNL1        0.1033
     37 C          60.1784   88.1921    9.9402 C.ar    1  UNL1        0.1387
     38 C          60.3315   89.6837    9.8950 C.ar    1  UNL1        0.0369
     39 C          60.2370   90.4080    8.5849 C.ar    1  UNL1        0.0032
     40 C          59.9894   89.6407    7.3199 C.ar    1  UNL1        0.0032
     41 C          59.8363   88.1493    7.3651 C.ar    1  UNL1        0.0032
     42 C          59.9308   87.4250    8.6753 C.ar    1  UNL1        0.0369
     43 C          61.2541   86.3456   11.4179 C.3     1  UNL1        0.2525
     44 O          60.2729   87.4678   11.2503 O.3     1  UNL1       -0.4714
@<TRIPOS>BOND
     1    43    44    1
     2    44    37    1
     3    37    38   ar
     4    38    39   ar
     5    39    40   ar
     6    40    31    1
     7    31    32   ar
     8    32    33   ar
     9    33    34   ar
    10    34     1    1
    11     1     2    1
    12     2     3    1
    13     3     4    1
    14     4     5   am
    15     5     6    2
    16     5     7   am
    17    15     7    1
    18    15    16    1
    19    16    17    1
    20    17    18    1
    21    18    19    1
    22    19    20    1
    23    20    21    1
    24    21    22    1
    25    22    25    1
    26    25    26    1
    27    26    27   am
    28    26    28    2
    29    22    23    1
    30    22    24    1
    31     4     8    1
    32     8     9   ar
    33     9    10   ar
    34    10    11   ar
    35    11    12   ar
    36    12    13   ar
    37    34    35   ar
    38    35    36   ar
    39    40    41   ar
    40    41    42   ar
    41    42    37   ar
    42    36    31   ar
    43    13     1    1
    44    20    15    1
    45    13     8   ar
    46    24    16    1
    47    23    18    1
    48     7    14    1
    49    27    29    1
    50    27    30    1
@<TRIPOS>MOLECULE
*****
 44 50 0 0 0
SMALL
GASTEIGER

@<TRIPOS>ATOM
      1 N          59.0386   92.4930    2.0619 N.pl3   1  UNL1       -0.2543
      2 C          58.0633   92.0370    3.1063 C.3     1  UNL1        0.1203
      3 C          58.5614   91.4138    4.3765 C.3     1  UNL1        0.1216
      4 N          60.0348   91.2465    4.6023 N.am    1  UNL1       -0.2403
      5 C          60.5329   90.6232    5.8726 C.2     1  UNL1        0.3078
      6 O          62.0064   90.4560    6.0984 O.2     1  UNL1       -0.2522
      7 N          59.5576   90.1673    6.9170 N.am    1  UNL1       -0.2901
      8 C          61.0102   91.7025    3.5579 C.ar    1  UNL1        0.0690
      9 C          62.4836   91.5352    3.7838 C.ar    1  UNL1        0.0162
     10 C          63.4589   91.9912    2.7394 C.ar    1  UNL1        0.0014
     11 C          62.9608   92.6145    1.4691 C.ar    1  UNL1        0.0014
     12 C          61.4874   92.7817    1.2433 C.ar    1  UNL1        0.0162
     13 C          60.5121   92.3258    2.2877 C.ar    1  UNL1        0.0678
     14 H          58.5905   90.2770    6.7687 H       1  UNL1        0.1509
     15 C          60.0557   89.5440    8.1872 C.3     1  UNL1        0.0732
     16 C          61.0389   90.2800    9.0484 C.3     1  UNL1        0.0215
     17 C          60.5538   88.9207    9.4574 C.3     1  UNL1        0.0019
     18 C          61.0519   88.2975   10.7276 C.3     1  UNL1        0.0036
     19 C          60.0687   87.5616    9.8664 C.3     1  UNL1        0.0019
     20 C          59.5706   88.1848    8.5962 C.3     1  UNL1        0.0215
     21 C          61.6725   89.1830   10.9188 C.3     1  UNL1        0.0418
     22 C          62.5202   90.3926   11.1799 C.3     1  UNL1        0.1376
     23 C          62.0351   89.0335   11.5888 C.3     1  UNL1        0.0402
     24 C          62.0221   91.0159    9.9096 C.3     1  UNL1        0.0418
     25 O          63.5033   91.1286   12.0411 O.3     1  UNL1       -0.4421
     26 C          63.8123   90.6291   13.4214 C.2     1  UNL1        0.3982
     27 N          62.6987   90.2045   14.3321 N.am    1  UNL1       -0.2950
     28 O          65.2350   90.5544   13.8909 O.2     1  UNL1       -0.2267
     29 H          61.7650   90.2536   14.0240 H       1  UNL1        0.1482
     30 H          62.9015   89.8767   15.2380 H       1  UNL1        0.1482
     31 C          57.5443   94.3628   -1.7487 C.ar    1  UNL1        0.0384
     32 C          57.1115   92.9765   -1.3735 C.ar    1  UNL1        0.1033
     33 N          57.6096   92.3532   -0.1033 N.ar    1  UNL1       -0.2118
     34 C          58.5405   93.1163    0.7917 C.ar    1  UNL1        0.2241
     35 N          58.9734   94.5026    0.4165 N.ar    1  UNL1       -0.2118
     36 C          58.4753   95.1259   -0.8537 C.ar    1  UNL1        0.1033
     37 C          56.0500   96.2325   -5.5594 C.ar    1  UNL1        0.1387
     38 C          55.1405   95.3613   -4.7446 C.ar    1  UNL1        0.0369
     39 C          55.6386   94.7380   -3.4744 C.ar    1  UNL1        0.0032
     40 C          57.0462   94.9860   -3.0190 C.ar    1  UNL1        0.0032
     41 C          57.9556   95.8573   -3.8337 C.ar    1  UNL1        0.0032
     42 C          57.4575   96.4805   -5.1040 C.ar    1  UNL1        0.0369
     43 C          54.2531   96.4030   -7.4281 C.3     1  UNL1        0.2525
     44 O          55.5519   96.8558   -6.8296 O.3     1  UNL1       -0.4714
@<TRIPOS>BOND
     1    43    44    1
     2    44    37    1
     3    37    38   ar
     4    38    39   ar
     5    39    40   ar
     6    40    31    1
     7    31    32   ar
     8    32    33   ar
     9    33    34   ar
    10    34     1    1
    11     1     2    1
    12     2     3    1
    13     3     4    1
    14     4     5   am
    15     5     6    2
    16     5     7   am
    17    15     7    1
    18    15    16    1
    19    16    17    1
    20    17    18    1
    21    18    19    1
    22    19    20    1
    23    20    21    1
    24    21    22    1
    25    22    25    1
    26    25    26    1
    27    26    27   am
    28    26    28    2
    29    22    23    1
    30    22    24    1
    31     4     8    1
    32     8     9   ar
    33     9    10   ar
    34    10    11   ar
    35    11    12   ar
    36    12    13   ar
    37    34    35   ar
    38    35    36   ar
    39    40    41   ar
    40    41    42   ar
    41    42    37   ar
    42    36    31   ar
    43    13     1    1
    44    20    15    1
    45    13     8   ar
    46    24    16    1
    47    23    18    1
    48     7    14    1
    49    27    29    1
    50    27    30    1
@<TRIPOS>MOLECULE
*****
 44 50 0 0 0
SMALL
GASTEIGER

@<TRIPOS>ATOM
      1 N          59.1151   92.5302    2.0657 N.pl3   1  UNL1       -0.2543
      2 C          58.0781   92.1462    3.0791 C.3     1  UNL1        0.1203
      3 C          58.4944   91.5284    4.3810 C.3     1  UNL1        0.1216
      4 N          59.9477   91.2947    4.6695 N.am    1  UNL1       -0.2403
      5 C          60.3640   90.6769    5.9714 C.2     1  UNL1        0.3078
      6 O          61.8174   90.4431    6.2599 O.2     1  UNL1       -0.2522
      7 N          59.3270   90.2928    6.9849 N.am    1  UNL1       -0.2901
      8 C          60.9848   91.6787    3.6560 C.ar    1  UNL1        0.0690
      9 C          62.4381   91.4449    3.9445 C.ar    1  UNL1        0.0162
     10 C          63.4750   91.8289    2.9310 C.ar    1  UNL1        0.0014
     11 C          63.0587   92.4467    1.6291 C.ar    1  UNL1        0.0014
     12 C          61.6054   92.6805    1.3406 C.ar    1  UNL1        0.0162
     13 C          60.5685   92.2965    2.3541 C.ar    1  UNL1        0.0678
     14 H          58.3732   90.4463    6.7956 H       1  UNL1        0.1509
     15 C          59.7433   89.6750    8.2868 C.3     1  UNL1        0.0732
     16 C          60.2307   88.2568    8.3221 C.3     1  UNL1        0.0215
     17 C          60.1596   89.0572    9.5888 C.3     1  UNL1        0.0019
     18 C          60.5760   88.4395   10.8907 C.3     1  UNL1        0.0036
     19 C          60.0886   89.8576   10.8554 C.3     1  UNL1        0.0019
     20 C          59.6723   90.4754    9.5534 C.3     1  UNL1        0.0215
     21 C          60.8120   87.5018   10.3703 C.3     1  UNL1        0.0418
     22 C          61.1344   86.2209    9.6594 C.3     1  UNL1        0.1376
     23 C          61.0633   87.0212   10.9260 C.3     1  UNL1        0.0402
     24 C          60.7181   86.8387    8.3574 C.3     1  UNL1        0.0418
     25 O          61.6218   84.8027    9.6947 O.3     1  UNL1       -0.4421
     26 C          62.9005   84.4317    9.0038 C.2     1  UNL1        0.3982
     27 N          63.9274   83.6055    9.7199 N.am    1  UNL1       -0.2950
     28 O          63.1523   84.8869    7.5969 O.2     1  UNL1       -0.2267
     29 H          63.7622   83.3067   10.6433 H       1  UNL1        0.1482
     30 H          64.7667   83.3619    9.2665 H       1  UNL1        0.1482
     31 C          57.8662   94.3836   -1.8401 C.ar    1  UNL1        0.0384
     32 C          58.6774   95.1769   -0.8590 C.ar    1  UNL1        0.1033
     33 N          59.0937   94.5591    0.4429 N.ar    1  UNL1       -0.2118
     34 C          58.6988   93.1480    0.7637 C.ar    1  UNL1        0.2241
     35 N          57.8875   92.3547   -0.2174 N.ar    1  UNL1       -0.2118
     36 C          57.4712   92.9725   -1.5193 C.ar    1  UNL1        0.1033
     37 C          56.6172   96.2370   -5.7459 C.ar    1  UNL1        0.1387
     38 C          58.0337   96.3717   -5.2708 C.ar    1  UNL1        0.0369
     39 C          58.4500   95.7539   -3.9689 C.ar    1  UNL1        0.0032
     40 C          57.4499   95.0014   -3.1421 C.ar    1  UNL1        0.0032
     41 C          56.0335   94.8667   -3.6172 C.ar    1  UNL1        0.0032
     42 C          55.6172   95.4845   -4.9191 C.ar    1  UNL1        0.0369
     43 C          54.7880   96.7079   -7.5299 C.3     1  UNL1        0.2525
     44 O          56.2009   96.8548   -7.0478 O.3     1  UNL1       -0.4714
@<TRIPOS>BOND
     1    43    44    1
     2    44    37    1
     3    37    38   ar
     4    38    39   ar
     5    39    40   ar
     6    40    31    1
     7    31    32   ar
     8    32    33   ar
     9    33    34   ar
    10    34     1    1
    11     1     2    1
    12     2     3    1
    13     3     4    1
    14     4     5   am
    15     5     6    2
    16     5     7   am
    17    15     7    1
    18    15    16    1
    19    16    17    1
    20    17    18    1
    21    18    19    1
    22    19    20    1
    23    20    21    1
    24    21    22    1
    25    22    25    1
    26    25    26    1
    27    26    27   am
    28    26    28    2
    29    22    23    1
    30    22    24    1
    31     4     8    1
    32     8     9   ar
    33     9    10   ar
    34    10    11   ar
    35    11    12   ar
    36    12    13   ar
    37    34    35   ar
    38    35    36   ar
    39    40    41   ar
    40    41    42   ar
    41    42    37   ar
    42    36    31   ar
    43    13     1    1
    44    20    15    1
    45    13     8   ar
    46    24    16    1
    47    23    18    1
    48     7    14    1
    49    27    29    1
    50    27    30    1
@<TRIPOS>MOLECULE
*****
 44 50 0 0 0
SMALL
GASTEIGER

@<TRIPOS>ATOM
      1 N          60.9339   90.3020    7.2651 N.pl3   1  UNL1       -0.2543
      2 C          61.9877   90.8833    8.1603 C.3     1  UNL1        0.1203
      3 C          62.3392   90.1986    9.4478 C.3     1  UNL1        0.1216
      4 N          61.6369   88.9326    9.8401 N.am    1  UNL1       -0.2403
      5 C          61.9885   88.2478   11.1275 C.2     1  UNL1        0.3078
      6 O          61.2861   86.9817   11.5198 O.2     1  UNL1       -0.2522
      7 N          63.0423   88.8291   12.0228 N.am    1  UNL1       -0.2901
      8 C          60.5830   88.3512    8.9448 C.ar    1  UNL1        0.0690
      9 C          59.8807   87.0852    9.3371 C.ar    1  UNL1        0.0162
     10 C          58.8269   86.5038    8.4418 C.ar    1  UNL1        0.0014
     11 C          58.4754   87.1886    7.1544 C.ar    1  UNL1        0.0014
     12 C          59.1777   88.4546    6.7621 C.ar    1  UNL1        0.0162
     13 C          60.2315   89.0359    7.6573 C.ar    1  UNL1        0.0678
     14 H          63.5032   89.6601   11.7653 H       1  UNL1        0.1509
     15 C          63.3938   88.1444   13.3102 C.3     1  UNL1        0.0732
     16 C          63.5235   86.6506   13.3542 C.3     1  UNL1        0.0215
     17 C          63.7453   87.4597   14.5977 C.3     1  UNL1        0.0019
     18 C          64.0969   86.7750   15.8852 C.3     1  UNL1        0.0036
     19 C          63.9671   88.2687   15.8412 C.3     1  UNL1        0.0019
     20 C          63.6156   88.9534   14.5537 C.3     1  UNL1        0.0215
     21 C          64.0580   85.8017   15.3782 C.3     1  UNL1        0.0418
     22 C          64.0048   84.4722   14.6857 C.3     1  UNL1        0.1376
     23 C          64.2266   85.2812   15.9291 C.3     1  UNL1        0.0402
     24 C          63.6533   85.1569   13.3982 C.3     1  UNL1        0.0418
     25 O          64.1345   82.9785   14.7296 O.3     1  UNL1       -0.4421
     26 C          63.1861   82.1199   13.9465 C.2     1  UNL1        0.3982
     27 N          61.9861   81.5218   14.6190 N.am    1  UNL1       -0.2950
     28 O          63.4377   81.8595   12.4908 O.2     1  UNL1       -0.2267
     29 H          61.8210   81.6927   15.5743 H       1  UNL1        0.1482
     30 H          61.3636   80.9582   14.1050 H       1  UNL1        0.1482
     31 C          59.8793   92.3561    3.4027 C.ar    1  UNL1        0.0384
     32 C          61.2910   91.9183    3.6582 C.ar    1  UNL1        0.1033
     33 N          61.6425   91.2335    4.9456 N.ar    1  UNL1       -0.2118
     34 C          60.5824   90.9867    5.9776 C.ar    1  UNL1        0.2241
     35 N          59.1706   91.4246    5.7222 N.ar    1  UNL1       -0.2118
     36 C          58.8190   92.1093    4.4347 C.ar    1  UNL1        0.1033
     37 C          58.8247   94.4103   -0.4597 C.ar    1  UNL1        0.1387
     38 C          59.6475   95.1262    0.5702 C.ar    1  UNL1        0.0369
     39 C          59.9990   94.4415    1.8577 C.ar    1  UNL1        0.0032
     40 C          59.5278   93.0409    2.1152 C.ar    1  UNL1        0.0032
     41 C          58.7051   92.3250    1.0853 C.ar    1  UNL1        0.0032
     42 C          58.3536   93.0097   -0.2021 C.ar    1  UNL1        0.0369
     43 C          57.0857   94.9771   -2.3049 C.3     1  UNL1        0.2525
     44 O          58.4732   95.0950   -1.7472 O.3     1  UNL1       -0.4714
@<TRIPOS>BOND
     1    43    44    1
     2    44    37    1
     3    37    38   ar
     4    38    39   ar
     5    39    40   ar
     6    40    31    1
     7    31    32   ar
     8    32    33   ar
     9    33    34   ar
    10    34     1    1
    11     1     2    1
    12     2     3    1
    13     3     4    1
    14     4     5   am
    15     5     6    2
    16     5     7   am
    17    15     7    1
    18    15    16    1
    19    16    17    1
    20    17    18    1
    21    18    19    1
    22    19    20    1
    23    20    21    1
    24    21    22    1
    25    22    25    1
    26    25    26    1
    27    26    27   am
    28    26    28    2
    29    22    23    1
    30    22    24    1
    31     4     8    1
    32     8     9   ar
    33     9    10   ar
    34    10    11   ar
    35    11    12   ar
    36    12    13   ar
    37    34    35   ar
    38    35    36   ar
    39    40    41   ar
    40    41    42   ar
    41    42    37   ar
    42    36    31   ar
    43    13     1    1
    44    20    15    1
    45    13     8   ar
    46    24    16    1
    47    23    18    1
    48     7    14    1
    49    27    29    1
    50    27    30    1
