@<TRIPOS>MOLECULE
*****
 33 36 0 0 0
SMALL
GASTEIGER

@<TRIPOS>ATOM
      1 C          63.2665   84.5285   14.2424 C.ar    1  UNL1        0.1471
      2 N          63.1778   85.8027   13.4558 N.ar    1  UNL1       -0.2109
      3 C          63.9429   86.8591   14.1968 C.ar    1  UNL1        0.1686
      4 C          64.5044   86.2377   15.4413 C.ar    1  UNL1        0.1113
      5 N          64.0864   84.7974   15.4695 N.ar    1  UNL1       -0.3363
      6 H          64.3107   84.1434   16.1703 H       1  UNL1        0.1673
      7 N          64.1161   88.2861   13.7684 N.ar    1  UNL1       -0.2565
      8 C          64.9846   89.2096   14.5700 C.ar    1  UNL1        0.0857
      9 C          65.1577   90.6367   14.1417 C.ar    1  UNL1        0.0340
     10 C          64.4624   91.1402   12.9117 C.ar    1  UNL1        0.0569
     11 C          63.5939   90.2166   12.1100 C.ar    1  UNL1        0.0758
     12 C          63.4207   88.7896   12.5384 C.ar    1  UNL1        0.2672
     13 O          62.5522   87.8660   11.7367 O.2     1  UNL1       -0.2665
     14 N          64.6356   92.5672   12.4833 N.am    1  UNL1       -0.2790
     15 C          65.9301   93.0150   11.8719 C.2     1  UNL1        0.2678
     16 O          67.0513   92.0356   11.6888 O.2     1  UNL1       -0.2681
     17 H          63.8996   93.2100   12.6035 H       1  UNL1        0.1552
     18 C          66.1032   94.4421   11.4435 C.ar    1  UNL1        0.1419
     19 C          66.2390   94.9284   10.0311 C.ar    1  UNL1        0.0607
     20 S          66.3906   96.4203   10.0671 S.2     1  UNL1       -0.0638
     21 C          66.3487   96.8560   11.5018 C.ar    1  UNL1        0.1347
     22 N          66.1710   95.6334   12.3525 N.ar    1  UNL1       -0.2317
     23 C          62.6445   83.2160   13.8678 C.3     1  UNL1        0.1567
     24 C          62.1819   83.0314   15.2826 C.3     1  UNL1        0.0417
     25 O          62.0225   81.9035   13.4931 O.3     1  UNL1       -0.3756
     26 H          62.4004   81.1984   14.0417 H       1  UNL1        0.2112
     27 C          62.2272   85.6055    9.2725 C.3     1  UNL1        0.0310
     28 C          62.8984   84.5955   10.1553 C.ar    1  UNL1       -0.0221
     29 C          64.0323   83.7702    9.6231 C.ar    1  UNL1       -0.0043
     30 C          64.7035   82.7601   10.5059 C.ar    1  UNL1       -0.0006
     31 C          64.2410   82.5754   11.9207 C.ar    1  UNL1       -0.0016
     32 C          63.1071   83.4007   12.4528 C.ar    1  UNL1        0.0082
     33 C          62.4359   84.4108   11.5701 C.ar    1  UNL1       -0.0059
@<TRIPOS>BOND
     1    27    28    1
     2    28    29   ar
     3    29    30   ar
     4    30    31   ar
     5    31    32   ar
     6    32    23    1
     7    23    24    1
     8    23    25    1
     9    23     1    1
    10     1     2   ar
    11     2     3   ar
    12     3     7    1
    13     7     8   ar
    14     8     9   ar
    15     9    10   ar
    16    10    14    1
    17    14    15   am
    18    15    16    2
    19    15    18    1
    20    18    19   ar
    21    19    20   ar
    22    20    21   ar
    23    21    22   ar
    24    10    11   ar
    25    11    12   ar
    26    12    13    2
    27     3     4   ar
    28     4     5   ar
    29    32    33   ar
    30    33    28   ar
    31     5     1   ar
    32    12     7   ar
    33    22    18   ar
    34    25    26    1
    35    14    17    1
    36     5     6    1
@<TRIPOS>MOLECULE
*****
 33 36 0 0 0
SMALL
GASTEIGER

@<TRIPOS>ATOM
      1 C          63.7011   85.9147   15.2911 C.ar    1  UNL1        0.1471
      2 N          64.1823   86.8521   14.2235 N.ar    1  UNL1       -0.2109
      3 C          63.9667   88.2556   14.7072 C.ar    1  UNL1        0.1686
      4 C          63.3522   88.1855   16.0738 C.ar    1  UNL1        0.1113
      5 N          63.1881   86.7389   16.4347 N.ar    1  UNL1       -0.3363
      6 H          62.8101   86.3913   17.2747 H       1  UNL1        0.1673
      7 N          64.3059   89.5089   13.9561 N.ar    1  UNL1       -0.2565
      8 C          65.4021   90.4057   14.4500 C.ar    1  UNL1        0.0857
      9 C          65.7413   91.6590   13.6990 C.ar    1  UNL1        0.0340
     10 C          64.9844   92.0155   12.4541 C.ar    1  UNL1        0.0569
     11 C          63.8881   91.1187   11.9602 C.ar    1  UNL1        0.0758
     12 C          63.5489   89.8654   12.7112 C.ar    1  UNL1        0.2672
     13 O          62.4526   88.9685   12.2173 O.2     1  UNL1       -0.2665
     14 N          65.3236   93.2689   11.7031 N.am    1  UNL1       -0.2790
     15 C          66.4341   93.2617   10.6947 C.2     1  UNL1        0.2678
     16 O          67.2053   92.0012   10.4375 O.2     1  UNL1       -0.2681
     17 H          64.8174   94.0962   11.8719 H       1  UNL1        0.1552
     18 C          66.7733   94.5151    9.9437 C.ar    1  UNL1        0.1419
     19 C          66.6303   95.9170   10.4577 C.ar    1  UNL1        0.0607
     20 S          67.0837   96.8549    9.3784 S.2     1  UNL1       -0.0638
     21 C          67.5069   96.0326    8.1974 C.ar    1  UNL1        0.1347
     22 N          67.3151   94.5865    8.5468 N.ar    1  UNL1       -0.2317
     23 C          63.7282   84.4164   15.2266 C.3     1  UNL1        0.1567
     24 C          64.0418   84.3589   16.6923 C.3     1  UNL1        0.0417
     25 O          63.7552   82.9181   15.1620 O.3     1  UNL1       -0.3756
     26 H          64.6195   82.5970   15.4637 H       1  UNL1        0.2112
     27 C          64.6286   82.8155   10.3659 C.3     1  UNL1        0.0310
     28 C          63.8647   83.6734   11.3305 C.ar    1  UNL1       -0.0221
     29 C          62.7873   84.5889   10.8294 C.ar    1  UNL1       -0.0043
     30 C          62.0235   85.4468   11.7941 C.ar    1  UNL1       -0.0006
     31 C          62.3371   85.3893   13.2597 C.ar    1  UNL1       -0.0016
     32 C          63.4145   84.4739   13.7608 C.ar    1  UNL1        0.0082
     33 C          64.1783   83.6160   12.7962 C.ar    1  UNL1       -0.0059
@<TRIPOS>BOND
     1    27    28    1
     2    28    29   ar
     3    29    30   ar
     4    30    31   ar
     5    31    32   ar
     6    32    23    1
     7    23    24    1
     8    23    25    1
     9    23     1    1
    10     1     2   ar
    11     2     3   ar
    12     3     7    1
    13     7     8   ar
    14     8     9   ar
    15     9    10   ar
    16    10    14    1
    17    14    15   am
    18    15    16    2
    19    15    18    1
    20    18    19   ar
    21    19    20   ar
    22    20    21   ar
    23    21    22   ar
    24    10    11   ar
    25    11    12   ar
    26    12    13    2
    27     3     4   ar
    28     4     5   ar
    29    32    33   ar
    30    33    28   ar
    31     5     1   ar
    32    12     7   ar
    33    22    18   ar
    34    25    26    1
    35    14    17    1
    36     5     6    1
@<TRIPOS>MOLECULE
*****
 33 36 0 0 0
SMALL
GASTEIGER

@<TRIPOS>ATOM
      1 C          60.3934   87.9893    9.0413 C.ar    1  UNL1        0.1471
      2 N          61.7551   88.4131    9.5062 N.ar    1  UNL1       -0.2109
      3 C          61.5959   89.6491   10.3412 C.ar    1  UNL1        0.1686
      4 C          60.1358   89.9891   10.3923 C.ar    1  UNL1        0.1113
      5 N          59.3926   88.9633    9.5889 N.ar    1  UNL1       -0.3363
      6 H          58.4190   88.9344    9.4462 H       1  UNL1        0.1673
      7 N          62.7025   90.4112   11.0080 N.ar    1  UNL1       -0.2565
      8 C          63.5893   91.3091   10.1973 C.ar    1  UNL1        0.0857
      9 C          64.6958   92.0712   10.8641 C.ar    1  UNL1        0.0340
     10 C          64.9157   91.9354   12.3416 C.ar    1  UNL1        0.0569
     11 C          64.0289   91.0375   13.1524 C.ar    1  UNL1        0.0758
     12 C          62.9223   90.2754   12.4856 C.ar    1  UNL1        0.2672
     13 O          62.0355   89.3774   13.2964 O.2     1  UNL1       -0.2665
     14 N          66.0223   92.6975   13.0084 N.am    1  UNL1       -0.2790
     15 C          66.8247   92.0536   14.1000 C.2     1  UNL1        0.2678
     16 O          66.5204   90.6476   14.5247 O.2     1  UNL1       -0.2681
     17 H          66.2220   93.6203   12.7296 H       1  UNL1        0.1552
     18 C          67.9313   92.8157   14.7668 C.ar    1  UNL1        0.1419
     19 C          67.7702   93.8219   15.8675 C.ar    1  UNL1        0.0607
     20 S          69.1326   94.3335   16.2309 S.2     1  UNL1       -0.0638
     21 C          70.1357   93.6435   15.3547 C.ar    1  UNL1        0.1347
     22 N          69.3932   92.7054   14.4498 N.ar    1  UNL1       -0.2317
     23 C          60.0863   86.8003    8.1799 C.3     1  UNL1        0.1567
     24 C          58.9768   87.5645    7.5205 C.3     1  UNL1        0.0417
     25 O          59.7793   85.6113    7.3186 O.3     1  UNL1       -0.3756
     26 H          58.8564   85.3445    7.4528 H       1  UNL1        0.2112
     27 C          62.3576   84.9797   12.4842 C.3     1  UNL1        0.0310
     28 C          62.3315   85.1258   10.9916 C.ar    1  UNL1       -0.0221
     29 C          63.4149   84.5077   10.1585 C.ar    1  UNL1       -0.0043
     30 C          63.3889   84.6538    8.6658 C.ar    1  UNL1       -0.0006
     31 C          62.2794   85.4180    8.0063 C.ar    1  UNL1       -0.0016
     32 C          61.1959   86.0360    8.8394 C.ar    1  UNL1        0.0082
     33 C          61.2220   85.8899   10.3321 C.ar    1  UNL1       -0.0059
@<TRIPOS>BOND
     1    27    28    1
     2    28    29   ar
     3    29    30   ar
     4    30    31   ar
     5    31    32   ar
     6    32    23    1
     7    23    24    1
     8    23    25    1
     9    23     1    1
    10     1     2   ar
    11     2     3   ar
    12     3     7    1
    13     7     8   ar
    14     8     9   ar
    15     9    10   ar
    16    10    14    1
    17    14    15   am
    18    15    16    2
    19    15    18    1
    20    18    19   ar
    21    19    20   ar
    22    20    21   ar
    23    21    22   ar
    24    10    11   ar
    25    11    12   ar
    26    12    13    2
    27     3     4   ar
    28     4     5   ar
    29    32    33   ar
    30    33    28   ar
    31     5     1   ar
    32    12     7   ar
    33    22    18   ar
    34    25    26    1
    35    14    17    1
    36     5     6    1
@<TRIPOS>MOLECULE
*****
 33 36 0 0 0
SMALL
GASTEIGER

@<TRIPOS>ATOM
      1 C          65.9212   91.9100   14.7981 C.ar    1  UNL1        0.1471
      2 N          66.0170   90.4763   14.3676 N.ar    1  UNL1       -0.2109
      3 C          64.6529   89.8640   14.4881 C.ar    1  UNL1        0.1686
      4 C          63.7141   90.9193   14.9931 C.ar    1  UNL1        0.1113
      5 N          64.4979   92.1838   15.1847 N.ar    1  UNL1       -0.3363
      6 H          64.1409   93.0426   15.5075 H       1  UNL1        0.1673
      7 N          64.2912   88.4455   14.1611 N.ar    1  UNL1       -0.2565
      8 C          64.7124   87.3341   15.0761 C.ar    1  UNL1        0.0857
      9 C          64.3507   85.9156   14.7490 C.ar    1  UNL1        0.0340
     10 C          63.5678   85.6085   13.5071 C.ar    1  UNL1        0.0569
     11 C          63.1465   86.7199   12.5921 C.ar    1  UNL1        0.0758
     12 C          63.5082   88.1384   12.9191 C.ar    1  UNL1        0.2672
     13 O          63.0869   89.2499   12.0041 O.2     1  UNL1       -0.2665
     14 N          63.2060   84.1900   13.1800 N.am    1  UNL1       -0.2790
     15 C          62.6406   83.2959   14.2435 C.2     1  UNL1        0.2678
     16 O          62.4369   83.8204   15.6339 O.2     1  UNL1       -0.2681
     17 H          63.3397   83.8457   12.2674 H       1  UNL1        0.1552
     18 C          62.2789   81.8773   13.9164 C.ar    1  UNL1        0.1419
     19 C          63.0974   80.9256   13.0954 C.ar    1  UNL1        0.0607
     20 S          62.3595   79.6215   13.0245 S.2     1  UNL1       -0.0638
     21 C          61.0849   79.7674   13.8018 C.ar    1  UNL1        0.1347
     22 N          61.0351   81.1616   14.3530 N.ar    1  UNL1       -0.2317
     23 C          67.0504   92.8967   14.8354 C.3     1  UNL1        0.1567
     24 C          67.0806   92.8054   16.3323 C.3     1  UNL1        0.0417
     25 O          68.1795   93.8834   14.8728 O.3     1  UNL1       -0.3756
     26 H          67.9238   94.6472   15.4133 H       1  UNL1        0.2112
     27 C          65.5109   95.3214   10.5052 C.3     1  UNL1        0.0310
     28 C          66.2503   94.2003   11.1734 C.ar    1  UNL1       -0.0221
     29 C          66.9594   93.1706   10.3447 C.ar    1  UNL1       -0.0043
     30 C          67.6988   92.0495   11.0129 C.ar    1  UNL1       -0.0006
     31 C          67.7292   91.9582   12.5098 C.ar    1  UNL1       -0.0016
     32 C          67.0201   92.9880   13.3385 C.ar    1  UNL1        0.0082
     33 C          66.2806   94.1090   12.6703 C.ar    1  UNL1       -0.0059
@<TRIPOS>BOND
     1    27    28    1
     2    28    29   ar
     3    29    30   ar
     4    30    31   ar
     5    31    32   ar
     6    32    23    1
     7    23    24    1
     8    23    25    1
     9    23     1    1
    10     1     2   ar
    11     2     3   ar
    12     3     7    1
    13     7     8   ar
    14     8     9   ar
    15     9    10   ar
    16    10    14    1
    17    14    15   am
    18    15    16    2
    19    15    18    1
    20    18    19   ar
    21    19    20   ar
    22    20    21   ar
    23    21    22   ar
    24    10    11   ar
    25    11    12   ar
    26    12    13    2
    27     3     4   ar
    28     4     5   ar
    29    32    33   ar
    30    33    28   ar
    31     5     1   ar
    32    12     7   ar
    33    22    18   ar
    34    25    26    1
    35    14    17    1
    36     5     6    1
@<TRIPOS>MOLECULE
*****
 33 36 0 0 0
SMALL
GASTEIGER

@<TRIPOS>ATOM
      1 C          65.3830   92.0792   13.3683 C.ar    1  UNL1        0.1471
      2 N          65.3839   90.6222   13.7250 N.ar    1  UNL1       -0.2109
      3 C          64.2139   89.9772   13.0427 C.ar    1  UNL1        0.1686
      4 C          63.4900   91.0356   12.2643 C.ar    1  UNL1        0.1113
      5 N          64.2125   92.3347   12.4656 N.ar    1  UNL1       -0.3363
      6 H          63.9624   93.2026   12.0739 H       1  UNL1        0.1673
      7 N          63.8346   88.5283   13.1244 N.ar    1  UNL1       -0.2565
      8 C          64.2899   87.6983   14.2878 C.ar    1  UNL1        0.0857
      9 C          63.9106   86.2493   14.3695 C.ar    1  UNL1        0.0340
     10 C          63.0758   85.6305   13.2879 C.ar    1  UNL1        0.0569
     11 C          62.6204   86.4605   12.1244 C.ar    1  UNL1        0.0758
     12 C          62.9998   87.9094   12.0427 C.ar    1  UNL1        0.2672
     13 O          62.5444   88.7395   10.8792 O.2     1  UNL1       -0.2665
     14 N          62.6965   84.1815   13.3696 N.am    1  UNL1       -0.2790
     15 C          63.4046   83.1715   12.5160 C.2     1  UNL1        0.2678
     16 O          64.4920   83.6105   11.5808 O.2     1  UNL1       -0.2681
     17 H          61.9827   83.8934   13.9834 H       1  UNL1        0.1552
     18 C          63.0252   81.7226   12.5978 C.ar    1  UNL1        0.1419
     19 C          62.5586   81.0014   13.8275 C.ar    1  UNL1        0.0607
     20 S          62.2908   79.5735   13.4538 S.2     1  UNL1       -0.0638
     21 C          62.5919   79.4123   11.9932 C.ar    1  UNL1        0.1347
     22 N          63.0458   80.7405   11.4642 N.ar    1  UNL1       -0.2317
     23 C          66.3778   93.1012   13.8328 C.3     1  UNL1        0.1567
     24 C          66.1071   92.7174   15.2573 C.3     1  UNL1        0.0417
     25 O          67.3727   94.1232   14.2972 O.3     1  UNL1       -0.3756
     26 H          66.9372   94.7492   14.8967 H       1  UNL1        0.2112
     27 C          68.3623   91.9675    9.1662 C.3     1  UNL1        0.0310
     28 C          67.6408   92.9181   10.0749 C.ar    1  UNL1       -0.0221
     29 C          67.1900   94.2525    9.5590 C.ar    1  UNL1       -0.0043
     30 C          66.4685   95.2031   10.4677 C.ar    1  UNL1       -0.0006
     31 C          66.1978   94.8194   11.8923 C.ar    1  UNL1       -0.0016
     32 C          66.6486   93.4850   12.4081 C.ar    1  UNL1        0.0082
     33 C          67.3701   92.5344   11.4995 C.ar    1  UNL1       -0.0059
@<TRIPOS>BOND
     1    27    28    1
     2    28    29   ar
     3    29    30   ar
     4    30    31   ar
     5    31    32   ar
     6    32    23    1
     7    23    24    1
     8    23    25    1
     9    23     1    1
    10     1     2   ar
    11     2     3   ar
    12     3     7    1
    13     7     8   ar
    14     8     9   ar
    15     9    10   ar
    16    10    14    1
    17    14    15   am
    18    15    16    2
    19    15    18    1
    20    18    19   ar
    21    19    20   ar
    22    20    21   ar
    23    21    22   ar
    24    10    11   ar
    25    11    12   ar
    26    12    13    2
    27     3     4   ar
    28     4     5   ar
    29    32    33   ar
    30    33    28   ar
    31     5     1   ar
    32    12     7   ar
    33    22    18   ar
    34    25    26    1
    35    14    17    1
    36     5     6    1
@<TRIPOS>MOLECULE
*****
 33 36 0 0 0
SMALL
GASTEIGER

@<TRIPOS>ATOM
      1 C          62.9318   84.6354   13.9055 C.ar    1  UNL1        0.1471
      2 N          62.0791   85.1581   12.7876 N.ar    1  UNL1       -0.2109
      3 C          62.6060   86.5063   12.3940 C.ar    1  UNL1        0.1686
      4 C          63.7843   86.8169   13.2688 C.ar    1  UNL1        0.1113
      5 N          63.9857   85.6606   14.2029 N.ar    1  UNL1       -0.3363
      6 H          64.6865   85.5875   14.8905 H       1  UNL1        0.1673
      7 N          62.0518   87.3889   11.3152 N.ar    1  UNL1       -0.2565
      8 C          61.7032   86.8086    9.9768 C.ar    1  UNL1        0.0857
      9 C          61.1491   87.6913    8.8979 C.ar    1  UNL1        0.0340
     10 C          60.9436   89.1542    9.1576 C.ar    1  UNL1        0.0569
     11 C          61.2922   89.7345   10.4961 C.ar    1  UNL1        0.0758
     12 C          61.8463   88.8519   11.5749 C.ar    1  UNL1        0.2672
     13 O          62.1950   89.4322   12.9135 O.2     1  UNL1       -0.2665
     14 N          60.3894   90.0368    8.0788 N.am    1  UNL1       -0.2790
     15 C          59.3193   89.5205    7.1632 C.2     1  UNL1        0.2678
     16 O          58.8034   88.1216    7.3265 O.2     1  UNL1       -0.2681
     17 H          60.7281   90.9550    7.9716 H       1  UNL1        0.1552
     18 C          58.7651   90.4032    6.0843 C.ar    1  UNL1        0.1419
     19 C          59.5658   91.2509    5.1408 C.ar    1  UNL1        0.0607
     20 S          58.6085   91.9647    4.2330 S.2     1  UNL1       -0.0638
     21 C          57.2163   91.5582    4.6155 C.ar    1  UNL1        0.1347
     22 N          57.3131   90.5931    5.7598 N.ar    1  UNL1       -0.2317
     23 C          62.7607   83.3188   14.6035 C.3     1  UNL1        0.1567
     24 C          62.5829   84.0344   15.9097 C.3     1  UNL1        0.0417
     25 O          62.5896   82.0022   15.3015 O.3     1  UNL1       -0.3756
     26 H          63.2580   81.9169   15.9992 H       1  UNL1        0.2112
     27 C          64.3490   83.3122    9.6560 C.3     1  UNL1        0.0310
     28 C          63.7327   82.6000   10.8234 C.ar    1  UNL1       -0.0221
     29 C          63.2943   81.1722   10.6846 C.ar    1  UNL1       -0.0043
     30 C          62.6780   80.4600   11.8521 C.ar    1  UNL1       -0.0006
     31 C          62.5002   81.1755   13.1583 C.ar    1  UNL1       -0.0016
     32 C          62.9386   82.6032   13.2972 C.ar    1  UNL1        0.0082
     33 C          63.5548   83.3155   12.1297 C.ar    1  UNL1       -0.0059
@<TRIPOS>BOND
     1    27    28    1
     2    28    29   ar
     3    29    30   ar
     4    30    31   ar
     5    31    32   ar
     6    32    23    1
     7    23    24    1
     8    23    25    1
     9    23     1    1
    10     1     2   ar
    11     2     3   ar
    12     3     7    1
    13     7     8   ar
    14     8     9   ar
    15     9    10   ar
    16    10    14    1
    17    14    15   am
    18    15    16    2
    19    15    18    1
    20    18    19   ar
    21    19    20   ar
    22    20    21   ar
    23    21    22   ar
    24    10    11   ar
    25    11    12   ar
    26    12    13    2
    27     3     4   ar
    28     4     5   ar
    29    32    33   ar
    30    33    28   ar
    31     5     1   ar
    32    12     7   ar
    33    22    18   ar
    34    25    26    1
    35    14    17    1
    36     5     6    1
@<TRIPOS>MOLECULE
*****
 33 36 0 0 0
SMALL
GASTEIGER

@<TRIPOS>ATOM
      1 C          65.0022   91.2525   15.0809 C.ar    1  UNL1        0.1471
      2 N          65.2920   89.9341   14.4268 N.ar    1  UNL1       -0.2109
      3 C          64.2267   88.9646   14.8458 C.ar    1  UNL1        0.1686
      4 C          63.2785   89.6839   15.7588 C.ar    1  UNL1        0.1113
      5 N          63.7577   91.0979   15.9041 N.ar    1  UNL1       -0.3363
      6 H          63.3305   91.8010   16.4448 H       1  UNL1        0.1673
      7 N          64.1272   87.5282   14.4255 N.ar    1  UNL1       -0.2565
      8 C          64.6513   86.4463   15.3225 C.ar    1  UNL1        0.0857
      9 C          64.5517   85.0098   14.9023 C.ar    1  UNL1        0.0340
     10 C          63.9281   84.6552   13.5850 C.ar    1  UNL1        0.0569
     11 C          63.4040   85.7372   12.6879 C.ar    1  UNL1        0.0758
     12 C          63.5035   87.1736   13.1082 C.ar    1  UNL1        0.2672
     13 O          62.9794   88.2556   12.2111 O.2     1  UNL1       -0.2665
     14 N          63.8285   83.2188   13.1648 N.am    1  UNL1       -0.2790
     15 C          63.0543   82.8492   11.9343 C.2     1  UNL1        0.2678
     16 O          62.3797   83.9162   11.1241 O.2     1  UNL1       -0.2681
     17 H          64.2713   82.5185   13.6965 H       1  UNL1        0.1552
     18 C          62.9548   81.4127   11.5140 C.ar    1  UNL1        0.1419
     19 C          62.5729   80.2606   12.3954 C.ar    1  UNL1        0.0607
     20 S          62.6017   79.0120   11.5647 S.2     1  UNL1       -0.0638
     21 C          63.0015   79.3924   10.1699 C.ar    1  UNL1        0.1347
     22 N          63.2197   80.8761   10.1386 N.ar    1  UNL1       -0.2317
     23 C          65.8141   92.5055   14.9371 C.3     1  UNL1        0.1567
     24 C          65.9124   92.6132   16.4299 C.3     1  UNL1        0.0417
     25 O          66.6261   93.7585   14.7933 O.3     1  UNL1       -0.3756
     26 H          66.1846   94.4852   15.2599 H       1  UNL1        0.2112
     27 C          63.0834   91.3067   10.6819 C.3     1  UNL1        0.0310
     28 C          64.3505   91.7983   11.3166 C.ar    1  UNL1       -0.0221
     29 C          65.5193   92.1822   10.4584 C.ar    1  UNL1       -0.0043
     30 C          66.7864   92.6738   11.0931 C.ar    1  UNL1       -0.0006
     31 C          66.8847   92.7816   12.5859 C.ar    1  UNL1       -0.0016
     32 C          65.7159   92.3977   13.4441 C.ar    1  UNL1        0.0082
     33 C          64.4488   91.9061   12.8095 C.ar    1  UNL1       -0.0059
@<TRIPOS>BOND
     1    27    28    1
     2    28    29   ar
     3    29    30   ar
     4    30    31   ar
     5    31    32   ar
     6    32    23    1
     7    23    24    1
     8    23    25    1
     9    23     1    1
    10     1     2   ar
    11     2     3   ar
    12     3     7    1
    13     7     8   ar
    14     8     9   ar
    15     9    10   ar
    16    10    14    1
    17    14    15   am
    18    15    16    2
    19    15    18    1
    20    18    19   ar
    21    19    20   ar
    22    20    21   ar
    23    21    22   ar
    24    10    11   ar
    25    11    12   ar
    26    12    13    2
    27     3     4   ar
    28     4     5   ar
    29    32    33   ar
    30    33    28   ar
    31     5     1   ar
    32    12     7   ar
    33    22    18   ar
    34    25    26    1
    35    14    17    1
    36     5     6    1
@<TRIPOS>MOLECULE
*****
 33 36 0 0 0
SMALL
GASTEIGER

@<TRIPOS>ATOM
      1 C          63.1244   84.6029   13.7627 C.ar    1  UNL1        0.1471
      2 N          62.3386   85.0909   12.5819 N.ar    1  UNL1       -0.2109
      3 C          62.6407   86.5483   12.3942 C.ar    1  UNL1        0.1686
      4 C          63.6132   86.9609   13.4592 C.ar    1  UNL1        0.1113
      5 N          63.9121   85.7587   14.3049 N.ar    1  UNL1       -0.3363
      6 H          64.5189   85.7327   15.0798 H       1  UNL1        0.1673
      7 N          62.0704   87.4369   11.3288 N.ar    1  UNL1       -0.2565
      8 C          61.8607   88.8966   11.6026 C.ar    1  UNL1        0.0857
      9 C          61.2904   89.7852   10.5372 C.ar    1  UNL1        0.0340
     10 C          60.9299   89.2140    9.1980 C.ar    1  UNL1        0.0569
     11 C          61.1396   87.7542    8.9241 C.ar    1  UNL1        0.0758
     12 C          61.7099   86.8656    9.9895 C.ar    1  UNL1        0.2672
     13 O          61.9196   85.4058    9.7157 O.2     1  UNL1       -0.2665
     14 N          60.3596   90.1026    8.1325 N.am    1  UNL1       -0.2790
     15 C          59.4269   89.5361    7.1034 C.2     1  UNL1        0.2678
     16 O          59.0645   88.0811    7.1397 O.2     1  UNL1       -0.2681
     17 H          60.5974   91.0577    8.1087 H       1  UNL1        0.1552
     18 C          58.8566   90.4248    6.0379 C.ar    1  UNL1        0.1419
     19 C          57.4009   90.5984    5.7205 C.ar    1  UNL1        0.0607
     20 S          57.2866   91.5767    4.5892 S.2     1  UNL1       -0.0638
     21 C          58.6717   92.0078    4.2075 C.ar    1  UNL1        0.1347
     22 N          59.6420   91.2958    5.1028 N.ar    1  UNL1       -0.2317
     23 C          63.1227   83.2048   14.3060 C.3     1  UNL1        0.1567
     24 C          62.8236   83.7375   15.6759 C.3     1  UNL1        0.0417
     25 O          63.1211   81.8067   14.8493 O.3     1  UNL1       -0.3756
     26 H          63.7816   81.7336   15.5559 H       1  UNL1        0.2112
     27 C          62.5614   79.5147   10.6910 C.3     1  UNL1        0.0310
     28 C          63.1412   80.8271   11.1285 C.ar    1  UNL1       -0.0221
     29 C          64.0202   81.6068   10.1961 C.ar    1  UNL1       -0.0043
     30 C          64.6000   82.9192   10.6337 C.ar    1  UNL1       -0.0006
     31 C          64.3009   83.4519   12.0036 C.ar    1  UNL1       -0.0016
     32 C          63.4219   82.6722   12.9360 C.ar    1  UNL1        0.0082
     33 C          62.8421   81.3598   12.4984 C.ar    1  UNL1       -0.0059
@<TRIPOS>BOND
     1    27    28    1
     2    28    29   ar
     3    29    30   ar
     4    30    31   ar
     5    31    32   ar
     6    32    23    1
     7    23    24    1
     8    23    25    1
     9    23     1    1
    10     1     2   ar
    11     2     3   ar
    12     3     7    1
    13     7     8   ar
    14     8     9   ar
    15     9    10   ar
    16    10    14    1
    17    14    15   am
    18    15    16    2
    19    15    18    1
    20    18    19   ar
    21    19    20   ar
    22    20    21   ar
    23    21    22   ar
    24    10    11   ar
    25    11    12   ar
    26    12    13    2
    27     3     4   ar
    28     4     5   ar
    29    32    33   ar
    30    33    28   ar
    31     5     1   ar
    32    12     7   ar
    33    22    18   ar
    34    25    26    1
    35    14    17    1
    36     5     6    1
@<TRIPOS>MOLECULE
*****
 33 36 0 0 0
SMALL
GASTEIGER

@<TRIPOS>ATOM
      1 C          63.6225   84.8960   13.6645 C.ar    1  UNL1        0.1471
      2 N          63.3869   86.1587   12.8899 N.ar    1  UNL1       -0.2109
      3 C          62.3526   85.8733   11.8416 C.ar    1  UNL1        0.1686
      4 C          61.9489   84.4341   11.9684 C.ar    1  UNL1        0.1113
      5 N          62.7337   83.8301   13.0950 N.ar    1  UNL1       -0.3363
      6 H          62.6757   82.8979   13.4061 H       1  UNL1        0.1673
      7 N          61.8161   86.8546   10.8420 N.ar    1  UNL1       -0.2565
      8 C          60.9472   86.3789    9.7158 C.ar    1  UNL1        0.0857
      9 C          60.4107   87.3602    8.7163 C.ar    1  UNL1        0.0340
     10 C          60.7433   88.8173    8.8429 C.ar    1  UNL1        0.0569
     11 C          61.6123   89.2931    9.9692 C.ar    1  UNL1        0.0758
     12 C          62.1487   88.3118   10.9687 C.ar    1  UNL1        0.2672
     13 O          63.0177   88.7876   12.0950 O.2     1  UNL1       -0.2665
     14 N          60.2068   89.7987    7.8433 N.am    1  UNL1       -0.2790
     15 C          59.0491   89.4204    6.9678 C.2     1  UNL1        0.2678
     16 O          58.4279   88.0609    7.0918 O.2     1  UNL1       -0.2681
     17 H          60.6146   90.6911    7.7619 H       1  UNL1        0.1552
     18 C          58.5127   90.4019    5.9682 C.ar    1  UNL1        0.1419
     19 C          59.3298   91.3143    5.1024 C.ar    1  UNL1        0.0607
     20 S          58.3871   92.1195    4.2581 S.2     1  UNL1       -0.0638
     21 C          56.9872   91.7047    4.6021 C.ar    1  UNL1        0.1347
     22 N          57.0648   90.6431    5.6590 N.ar    1  UNL1       -0.2317
     23 C          64.5788   84.7285   14.8079 C.3     1  UNL1        0.1567
     24 C          65.0912   83.4597   14.1935 C.3     1  UNL1        0.0417
     25 O          65.5351   84.5609   15.9513 O.3     1  UNL1       -0.3756
     26 H          65.3737   83.7088   16.3856 H       1  UNL1        0.2112
     27 C          64.3065   89.9173   14.8513 C.3     1  UNL1        0.0310
     28 C          63.9303   88.5917   15.4440 C.ar    1  UNL1       -0.0221
     29 C          63.0416   88.5350   16.6511 C.ar    1  UNL1       -0.0043
     30 C          62.6653   87.2094   17.2438 C.ar    1  UNL1       -0.0006
     31 C          63.1777   85.9406   16.6294 C.ar    1  UNL1       -0.0016
     32 C          64.0664   85.9973   15.4223 C.ar    1  UNL1        0.0082
     33 C          64.4426   87.3229   14.8296 C.ar    1  UNL1       -0.0059
@<TRIPOS>BOND
     1    27    28    1
     2    28    29   ar
     3    29    30   ar
     4    30    31   ar
     5    31    32   ar
     6    32    23    1
     7    23    24    1
     8    23    25    1
     9    23     1    1
    10     1     2   ar
    11     2     3   ar
    12     3     7    1
    13     7     8   ar
    14     8     9   ar
    15     9    10   ar
    16    10    14    1
    17    14    15   am
    18    15    16    2
    19    15    18    1
    20    18    19   ar
    21    19    20   ar
    22    20    21   ar
    23    21    22   ar
    24    10    11   ar
    25    11    12   ar
    26    12    13    2
    27     3     4   ar
    28     4     5   ar
    29    32    33   ar
    30    33    28   ar
    31     5     1   ar
    32    12     7   ar
    33    22    18   ar
    34    25    26    1
    35    14    17    1
    36     5     6    1
