@<TRIPOS>MOLECULE
*****
 25 27 0 0 0
SMALL
GASTEIGER

@<TRIPOS>ATOM
      1 N          66.0674   93.1040   13.0172 N.ar    1  UNL1       -0.3165
      2 C          66.9482   93.0240   14.2288 C.ar    1  UNL1        0.0779
      3 C          66.6193   91.7551   14.9579 C.ar    1  UNL1        0.0392
      4 C          65.5353   91.0508   14.1970 C.ar    1  UNL1        0.0985
      5 N          64.8148   89.7581   14.4414 N.ar    1  UNL1       -0.2423
      6 C          63.7531   89.2991   13.4863 C.ar    1  UNL1        0.0989
      7 C          63.4120   90.1328   12.2869 C.ar    1  UNL1        0.0206
      8 C          64.1325   91.4255   12.0426 C.ar    1  UNL1        0.0203
      9 C          65.1942   91.8845   12.9976 C.ar    1  UNL1        0.0782
     10 C          62.3503   89.6737   11.3318 C.ar    1  UNL1        0.0015
     11 C          61.1305   90.5167   11.1047 C.ar    1  UNL1        0.0000
     12 C          60.0688   90.0576   10.1496 C.ar    1  UNL1       -0.0001
     13 C          60.2269   88.7556    9.4217 C.ar    1  UNL1        0.0039
     14 C          61.4468   87.9126    9.6489 C.ar    1  UNL1        0.0714
     15 C          62.5084   88.3717   10.6040 C.ar    1  UNL1        0.0039
     16 C          61.6049   86.6106    8.9211 C.3     1  UNL1        0.4186
     17 F          61.7630   85.3086    8.1932 F       1  UNL1       -0.1659
     18 F          60.1351   86.3498    9.0685 F       1  UNL1       -0.1659
     19 F          63.0747   86.8715    8.7737 F       1  UNL1       -0.1659
     20 C          66.0609   94.2094   12.0033 C.3     1  UNL1        0.1920
     21 C          67.3829   94.8990    8.3254 C.3     1  UNL1        0.1150
     22 N          66.6448   95.0651    9.6206 N.am    1  UNL1       -0.2744
     23 C          65.7525   96.2527    9.8285 C.3     1  UNL1        0.1150
     24 C          66.7990   94.0434   10.7080 C.2     1  UNL1        0.2488
     25 O          67.6914   92.8557   10.5002 O.2     1  UNL1       -0.2728
@<TRIPOS>BOND
     1    21    22    1
     2    22    23    1
     3    22    24   am
     4    24    25    2
     5    24    20    1
     6    20     1    1
     7     1     2   ar
     8     2     3   ar
     9     3     4   ar
    10     4     5   ar
    11     5     6   ar
    12     6     7   ar
    13     7    10    1
    14    10    11   ar
    15    11    12   ar
    16    12    13   ar
    17    13    14   ar
    18    14    16    1
    19    16    17    1
    20    16    18    1
    21    16    19    1
    22    14    15   ar
    23     7     8   ar
    24     8     9   ar
    25     9     1   ar
    26     9     4   ar
    27    15    10   ar
@<TRIPOS>MOLECULE
*****
 25 27 0 0 0
SMALL
GASTEIGER

@<TRIPOS>ATOM
      1 N          64.1585   85.3456   14.1798 N.ar    1  UNL1       -0.3165
      2 C          64.8050   86.2238   15.2098 C.ar    1  UNL1        0.0779
      3 C          64.5642   87.6517   14.8184 C.ar    1  UNL1        0.0392
      4 C          63.7689   87.6559   13.5465 C.ar    1  UNL1        0.0985
      5 N          63.2407   88.7735   12.6968 N.ar    1  UNL1       -0.2423
      6 C          62.4618   88.4657   11.4524 C.ar    1  UNL1        0.0989
      7 C          62.2111   87.0405   11.0578 C.ar    1  UNL1        0.0206
      8 C          62.7393   85.9229   11.9075 C.ar    1  UNL1        0.0203
      9 C          63.5182   86.2307   13.1519 C.ar    1  UNL1        0.0782
     10 C          61.4322   86.7327    9.8133 C.ar    1  UNL1        0.0015
     11 C          60.0595   87.3079    9.6262 C.ar    1  UNL1        0.0000
     12 C          59.2806   87.0001    8.3818 C.ar    1  UNL1       -0.0001
     13 C          59.8743   86.1173    7.3244 C.ar    1  UNL1        0.0039
     14 C          61.2471   85.5422    7.5115 C.ar    1  UNL1        0.0714
     15 C          62.0259   85.8499    8.7559 C.ar    1  UNL1        0.0039
     16 C          61.8408   84.6593    6.4541 C.3     1  UNL1        0.4186
     17 F          62.4346   83.7765    5.3968 F       1  UNL1       -0.1659
     18 F          60.4636   84.2990    5.9816 F       1  UNL1       -0.1659
     19 F          63.2181   85.0197    6.9267 F       1  UNL1       -0.1659
     20 C          64.1533   83.8456   14.1781 C.3     1  UNL1        0.1920
     21 C          61.2817   81.1063   14.1571 C.3     1  UNL1        0.1150
     22 N          62.5316   81.8523   13.7947 N.am    1  UNL1       -0.2744
     23 C          63.4096   81.3511   12.6866 C.3     1  UNL1        0.1150
     24 C          62.9034   83.0995   14.5404 C.2     1  UNL1        0.2488
     25 O          62.0254   83.6007   15.6485 O.2     1  UNL1       -0.2728
@<TRIPOS>BOND
     1    21    22    1
     2    22    23    1
     3    22    24   am
     4    24    25    2
     5    24    20    1
     6    20     1    1
     7     1     2   ar
     8     2     3   ar
     9     3     4   ar
    10     4     5   ar
    11     5     6   ar
    12     6     7   ar
    13     7    10    1
    14    10    11   ar
    15    11    12   ar
    16    12    13   ar
    17    13    14   ar
    18    14    16    1
    19    16    17    1
    20    16    18    1
    21    16    19    1
    22    14    15   ar
    23     7     8   ar
    24     8     9   ar
    25     9     1   ar
    26     9     4   ar
    27    15    10   ar
@<TRIPOS>MOLECULE
*****
 25 27 0 0 0
SMALL
GASTEIGER

@<TRIPOS>ATOM
      1 N          63.9476   90.1507   13.3114 N.ar    1  UNL1       -0.3165
      2 C          64.6671   89.8415   14.5908 C.ar    1  UNL1        0.0779
      3 C          64.6028   88.3593   14.8120 C.ar    1  UNL1        0.0392
      4 C          63.8437   87.7525   13.6695 C.ar    1  UNL1        0.0985
      5 N          63.4688   86.3349   13.3538 N.ar    1  UNL1       -0.2423
      6 C          62.6890   86.0244   12.1107 C.ar    1  UNL1        0.0989
      7 C          62.2840   87.1315   11.1832 C.ar    1  UNL1        0.0206
      8 C          62.6589   88.5492   11.4989 C.ar    1  UNL1        0.0203
      9 C          63.4387   88.8597   12.7420 C.ar    1  UNL1        0.0782
     10 C          61.5042   86.8210    9.9400 C.ar    1  UNL1        0.0015
     11 C          60.1350   87.4028    9.7486 C.ar    1  UNL1        0.0000
     12 C          59.3551   87.0922    8.5054 C.ar    1  UNL1       -0.0001
     13 C          59.9446   86.1999    7.4537 C.ar    1  UNL1        0.0039
     14 C          61.3139   85.6181    7.6451 C.ar    1  UNL1        0.0714
     15 C          62.0937   85.9286    8.8882 C.ar    1  UNL1        0.0039
     16 C          61.9034   84.7257    6.5933 C.3     1  UNL1        0.4186
     17 F          62.4928   83.8334    5.5415 F       1  UNL1       -0.1659
     18 F          60.5292   84.4446    6.0617 F       1  UNL1       -0.1659
     19 F          63.2775   85.0069    7.1249 F       1  UNL1       -0.1659
     20 C          63.7684   91.5121   12.7075 C.3     1  UNL1        0.1920
     21 C          66.6252   92.8365   10.2920 C.3     1  UNL1        0.1150
     22 N          65.8855   92.4681   11.5438 N.am    1  UNL1       -0.2744
     23 C          66.5230   92.6873   12.8837 C.3     1  UNL1        0.1150
     24 C          64.5082   91.8805   11.4556 C.2     1  UNL1        0.2488
     25 O          63.8707   91.6612   10.1156 O.2     1  UNL1       -0.2728
@<TRIPOS>BOND
     1    21    22    1
     2    22    23    1
     3    22    24   am
     4    24    25    2
     5    24    20    1
     6    20     1    1
     7     1     2   ar
     8     2     3   ar
     9     3     4   ar
    10     4     5   ar
    11     5     6   ar
    12     6     7   ar
    13     7    10    1
    14    10    11   ar
    15    11    12   ar
    16    12    13   ar
    17    13    14   ar
    18    14    16    1
    19    16    17    1
    20    16    18    1
    21    16    19    1
    22    14    15   ar
    23     7     8   ar
    24     8     9   ar
    25     9     1   ar
    26     9     4   ar
    27    15    10   ar
@<TRIPOS>MOLECULE
*****
 25 27 0 0 0
SMALL
GASTEIGER

@<TRIPOS>ATOM
      1 N          64.3257   88.3171   14.1238 N.ar    1  UNL1       -0.3165
      2 C          64.7404   89.5851   14.8095 C.ar    1  UNL1        0.0779
      3 C          64.1550   90.7369   14.0476 C.ar    1  UNL1        0.0392
      4 C          63.3784   90.1808   12.8910 C.ar    1  UNL1        0.0985
      5 N          62.5889   90.8430   11.8010 N.ar    1  UNL1       -0.2423
      6 C          61.9049   90.0097   10.7581 C.ar    1  UNL1        0.0989
      7 C          62.0104   88.5142   10.8052 C.ar    1  UNL1        0.0206
      8 C          62.8000   87.8520   11.8951 C.ar    1  UNL1        0.0203
      9 C          63.4840   88.6853   12.9380 C.ar    1  UNL1        0.0782
     10 C          61.3264   87.6809    9.7622 C.ar    1  UNL1        0.0015
     11 C          59.8435   87.7931    9.5664 C.ar    1  UNL1        0.0000
     12 C          59.1594   86.9598    8.5234 C.ar    1  UNL1       -0.0001
     13 C          59.9584   86.0142    7.6763 C.ar    1  UNL1        0.0039
     14 C          61.4414   85.9020    7.8721 C.ar    1  UNL1        0.0714
     15 C          62.1253   86.7353    8.9150 C.ar    1  UNL1        0.0039
     16 C          62.2403   84.9565    7.0249 C.3     1  UNL1        0.4186
     17 F          63.0392   84.0110    6.1777 F       1  UNL1       -0.1659
     18 F          63.4853   85.3441    7.7664 F       1  UNL1       -0.1659
     19 F          60.9953   84.5689    6.2834 F       1  UNL1       -0.1659
     20 C          64.6889   86.9253   14.5490 C.3     1  UNL1        0.1920
     21 C          62.3436   83.8444   15.4198 C.3     1  UNL1        0.1150
     22 N          63.3547   84.7023   14.7186 N.am    1  UNL1       -0.2744
     23 C          64.0429   84.1953   13.4860 C.3     1  UNL1        0.1150
     24 C          63.6777   86.0673   15.2502 C.2     1  UNL1        0.2488
     25 O          62.9896   86.5743   16.4828 O.2     1  UNL1       -0.2728
@<TRIPOS>BOND
     1    21    22    1
     2    22    23    1
     3    22    24   am
     4    24    25    2
     5    24    20    1
     6    20     1    1
     7     1     2   ar
     8     2     3   ar
     9     3     4   ar
    10     4     5   ar
    11     5     6   ar
    12     6     7   ar
    13     7    10    1
    14    10    11   ar
    15    11    12   ar
    16    12    13   ar
    17    13    14   ar
    18    14    16    1
    19    16    17    1
    20    16    18    1
    21    16    19    1
    22    14    15   ar
    23     7     8   ar
    24     8     9   ar
    25     9     1   ar
    26     9     4   ar
    27    15    10   ar
@<TRIPOS>MOLECULE
*****
 25 27 0 0 0
SMALL
GASTEIGER

@<TRIPOS>ATOM
      1 N          61.5813   86.3700    9.6267 N.ar    1  UNL1       -0.3165
      2 C          60.3233   86.2833    8.8143 C.ar    1  UNL1        0.0779
      3 C          59.6683   87.6326    8.8288 C.ar    1  UNL1        0.0392
      4 C          60.5214   88.5533    9.6502 C.ar    1  UNL1        0.0985
      5 N          60.3743   90.0013   10.0128 N.ar    1  UNL1       -0.2423
      6 C          61.4096   90.6690   10.8685 C.ar    1  UNL1        0.0989
      7 C          62.5920   89.8887   11.3616 C.ar    1  UNL1        0.0206
      8 C          62.7390   88.4406   10.9990 C.ar    1  UNL1        0.0203
      9 C          61.7037   87.7729   10.1433 C.ar    1  UNL1        0.0782
     10 C          63.6273   90.5565   12.2173 C.ar    1  UNL1        0.0015
     11 C          63.9671   89.9891   13.5637 C.ar    1  UNL1        0.0000
     12 C          65.0024   90.6569   14.4194 C.ar    1  UNL1       -0.0001
     13 C          65.6979   91.8920   13.9288 C.ar    1  UNL1        0.0039
     14 C          65.3581   92.4594   12.5823 C.ar    1  UNL1        0.0714
     15 C          64.3228   91.7916   11.7267 C.ar    1  UNL1        0.0039
     16 C          66.0536   93.6945   12.0917 C.3     1  UNL1        0.4186
     17 F          66.7491   94.9296   11.6010 F       1  UNL1       -0.1659
     18 F          65.7115   93.3258   10.6785 F       1  UNL1       -0.1659
     19 F          66.3958   94.0632   13.5048 F       1  UNL1       -0.1659
     20 C          62.5473   85.2504    9.8783 C.3     1  UNL1        0.1920
     21 C          63.6298   82.8534   12.8503 C.3     1  UNL1        0.1150
     22 N          63.4895   83.4271   11.4715 N.am    1  UNL1       -0.2744
     23 C          64.1509   82.7514   10.3070 C.3     1  UNL1        0.1150
     24 C          62.6877   84.6766   11.2572 C.2     1  UNL1        0.2488
     25 O          62.0263   85.3523   12.4216 O.2     1  UNL1       -0.2728
@<TRIPOS>BOND
     1    21    22    1
     2    22    23    1
     3    22    24   am
     4    24    25    2
     5    24    20    1
     6    20     1    1
     7     1     2   ar
     8     2     3   ar
     9     3     4   ar
    10     4     5   ar
    11     5     6   ar
    12     6     7   ar
    13     7    10    1
    14    10    11   ar
    15    11    12   ar
    16    12    13   ar
    17    13    14   ar
    18    14    16    1
    19    16    17    1
    20    16    18    1
    21    16    19    1
    22    14    15   ar
    23     7     8   ar
    24     8     9   ar
    25     9     1   ar
    26     9     4   ar
    27    15    10   ar
@<TRIPOS>MOLECULE
*****
 25 27 0 0 0
SMALL
GASTEIGER

@<TRIPOS>ATOM
      1 N          62.6198   89.8124   11.7919 N.ar    1  UNL1       -0.3165
      2 C          61.6962   90.8556   11.2363 C.ar    1  UNL1        0.0779
      3 C          60.7152   90.1714   10.3311 C.ar    1  UNL1        0.0392
      4 C          61.0323   88.7054   10.3273 C.ar    1  UNL1        0.0985
      5 N          60.4013   87.5438    9.6183 N.ar    1  UNL1       -0.2423
      6 C          60.9475   86.1603    9.8122 C.ar    1  UNL1        0.0989
      7 C          62.1246   85.9384   10.7150 C.ar    1  UNL1        0.0206
      8 C          62.7556   87.0999   11.4240 C.ar    1  UNL1        0.0203
      9 C          62.2095   88.4834   11.2301 C.ar    1  UNL1        0.0782
     10 C          62.6708   84.5548   10.9089 C.ar    1  UNL1        0.0015
     11 C          63.6789   84.0045    9.9442 C.ar    1  UNL1        0.0000
     12 C          64.2251   82.6209   10.1380 C.ar    1  UNL1       -0.0001
     13 C          63.7631   81.7877   11.2967 C.ar    1  UNL1        0.0039
     14 C          62.7549   82.3382   12.2614 C.ar    1  UNL1        0.0714
     15 C          62.2088   83.7217   12.0675 C.ar    1  UNL1        0.0039
     16 C          62.2929   81.5051   13.4201 C.3     1  UNL1        0.4186
     17 F          61.8309   80.6719   14.5787 F       1  UNL1       -0.1659
     18 F          62.0245   82.7519   14.2096 F       1  UNL1       -0.1659
     19 F          62.5614   80.2582   12.6306 F       1  UNL1       -0.1659
     20 C          63.7544   90.0553   12.7424 C.3     1  UNL1        0.1920
     21 C          64.1434   91.4683   16.4305 C.3     1  UNL1        0.1150
     22 N          64.4241   91.1839   14.9847 N.am    1  UNL1       -0.2744
     23 C          65.6550   91.7437   14.3354 C.3     1  UNL1        0.1150
     24 C          63.4738   90.3398   14.1883 C.2     1  UNL1        0.2488
     25 O          62.2430   89.7801   14.8376 O.2     1  UNL1       -0.2728
@<TRIPOS>BOND
     1    21    22    1
     2    22    23    1
     3    22    24   am
     4    24    25    2
     5    24    20    1
     6    20     1    1
     7     1     2   ar
     8     2     3   ar
     9     3     4   ar
    10     4     5   ar
    11     5     6   ar
    12     6     7   ar
    13     7    10    1
    14    10    11   ar
    15    11    12   ar
    16    12    13   ar
    17    13    14   ar
    18    14    16    1
    19    16    17    1
    20    16    18    1
    21    16    19    1
    22    14    15   ar
    23     7     8   ar
    24     8     9   ar
    25     9     1   ar
    26     9     4   ar
    27    15    10   ar
@<TRIPOS>MOLECULE
*****
 25 27 0 0 0
SMALL
GASTEIGER

@<TRIPOS>ATOM
      1 N          63.7116   85.3430   15.2221 N.ar    1  UNL1       -0.3165
      2 C          62.8804   84.7496   16.3207 C.ar    1  UNL1        0.0779
      3 C          62.3883   85.8710   17.1868 C.ar    1  UNL1        0.0392
      4 C          62.9152   87.1575   16.6235 C.ar    1  UNL1        0.0985
      5 N          62.7560   88.5839   17.0594 N.ar    1  UNL1       -0.2423
      6 C          63.4146   89.6839   16.2810 C.ar    1  UNL1        0.0989
      7 C          64.2325   89.3576   15.0666 C.ar    1  UNL1        0.0206
      8 C          64.3917   87.9312   14.6308 C.ar    1  UNL1        0.0203
      9 C          63.7331   86.8312   15.4092 C.ar    1  UNL1        0.0782
     10 C          64.8911   90.4578   14.2882 C.ar    1  UNL1        0.0015
     11 C          64.2864   90.9306   12.9996 C.ar    1  UNL1        0.0000
     12 C          64.9450   92.0308   12.2211 C.ar    1  UNL1       -0.0001
     13 C          66.2084   92.6580   12.7314 C.ar    1  UNL1        0.0039
     14 C          66.8132   92.1851   14.0201 C.ar    1  UNL1        0.0714
     15 C          66.1546   91.0850   14.7984 C.ar    1  UNL1        0.0039
     16 C          68.0766   92.8123   14.5303 C.3     1  UNL1        0.4186
     17 F          69.3401   93.4395   15.0406 F       1  UNL1       -0.1659
     18 F          67.2720   93.6941   15.4387 F       1  UNL1       -0.1659
     19 F          68.8812   91.9305   13.6220 F       1  UNL1       -0.1659
     20 C          64.4004   84.5820   14.1283 C.3     1  UNL1        0.1920
     21 C          62.6117   81.8224   11.9066 C.3     1  UNL1        0.1150
     22 N          63.1556   83.1459   12.3567 N.am    1  UNL1       -0.2744
     23 C          62.9987   84.3568   11.4854 C.3     1  UNL1        0.1150
     24 C          63.8564   83.2584   13.6781 C.2     1  UNL1        0.2488
     25 O          64.0133   82.0476   14.5494 O.2     1  UNL1       -0.2728
@<TRIPOS>BOND
     1    21    22    1
     2    22    23    1
     3    22    24   am
     4    24    25    2
     5    24    20    1
     6    20     1    1
     7     1     2   ar
     8     2     3   ar
     9     3     4   ar
    10     4     5   ar
    11     5     6   ar
    12     6     7   ar
    13     7    10    1
    14    10    11   ar
    15    11    12   ar
    16    12    13   ar
    17    13    14   ar
    18    14    16    1
    19    16    17    1
    20    16    18    1
    21    16    19    1
    22    14    15   ar
    23     7     8   ar
    24     8     9   ar
    25     9     1   ar
    26     9     4   ar
    27    15    10   ar
@<TRIPOS>MOLECULE
*****
 25 27 0 0 0
SMALL
GASTEIGER

@<TRIPOS>ATOM
      1 N          63.7236   91.3625   10.7991 N.ar    1  UNL1       -0.3165
      2 C          64.4798   92.6068   10.4387 C.ar    1  UNL1        0.0779
      3 C          65.3677   92.9607   11.5948 C.ar    1  UNL1        0.0392
      4 C          65.1602   91.9351   12.6696 C.ar    1  UNL1        0.0985
      5 N          65.7652   91.7731   14.0325 N.ar    1  UNL1       -0.2423
      6 C          65.3541   90.6233   14.9037 C.ar    1  UNL1        0.0989
      7 C          64.3380   89.6356   14.4119 C.ar    1  UNL1        0.0206
      8 C          63.7330   89.7976   13.0489 C.ar    1  UNL1        0.0203
      9 C          64.1441   90.9474   12.1778 C.ar    1  UNL1        0.0782
     10 C          63.9269   88.4857   15.2831 C.ar    1  UNL1        0.0015
     11 C          63.2231   88.7434   16.5824 C.ar    1  UNL1        0.0000
     12 C          62.8120   87.5936   17.4536 C.ar    1  UNL1       -0.0001
     13 C          63.1047   86.1861   17.0255 C.ar    1  UNL1        0.0039
     14 C          63.8086   85.9285   15.7261 C.ar    1  UNL1        0.0714
     15 C          64.2196   87.0783   14.8550 C.ar    1  UNL1        0.0039
     16 C          64.1013   84.5210   15.2980 C.3     1  UNL1        0.4186
     17 F          64.3941   83.1135   14.8698 F       1  UNL1       -0.1659
     18 F          62.8299   84.0593   15.9462 F       1  UNL1       -0.1659
     19 F          65.3728   84.9826   14.6497 F       1  UNL1       -0.1659
     20 C          62.7226   90.6571    9.9327 C.3     1  UNL1        0.1920
     21 C          59.9952   88.0095   11.0737 C.3     1  UNL1        0.1150
     22 N          61.2344   88.5947   10.4639 N.am    1  UNL1       -0.2744
     23 C          62.2247   87.7028    9.7754 C.3     1  UNL1        0.1150
     24 C          61.4834   90.0718   10.5426 C.2     1  UNL1        0.2488
     25 O          60.4931   90.9637   11.2310 O.2     1  UNL1       -0.2728
@<TRIPOS>BOND
     1    21    22    1
     2    22    23    1
     3    22    24   am
     4    24    25    2
     5    24    20    1
     6    20     1    1
     7     1     2   ar
     8     2     3   ar
     9     3     4   ar
    10     4     5   ar
    11     5     6   ar
    12     6     7   ar
    13     7    10    1
    14    10    11   ar
    15    11    12   ar
    16    12    13   ar
    17    13    14   ar
    18    14    16    1
    19    16    17    1
    20    16    18    1
    21    16    19    1
    22    14    15   ar
    23     7     8   ar
    24     8     9   ar
    25     9     1   ar
    26     9     4   ar
    27    15    10   ar
@<TRIPOS>MOLECULE
*****
 25 27 0 0 0
SMALL
GASTEIGER

@<TRIPOS>ATOM
      1 N          63.0837   85.8571   12.4769 N.ar    1  UNL1       -0.3165
      2 C          62.2906   85.5354   11.2450 C.ar    1  UNL1        0.0779
      3 C          61.9324   86.8281   10.5737 C.ar    1  UNL1        0.0392
      4 C          62.5042   87.9487   11.3906 C.ar    1  UNL1        0.0985
      5 N          62.4688   89.4379   11.2154 N.ar    1  UNL1       -0.2423
      6 C          63.1451   90.3271   12.2164 C.ar    1  UNL1        0.0989
      7 C          63.8567   89.7270   13.3926 C.ar    1  UNL1        0.0206
      8 C          63.8920   88.2377   13.5679 C.ar    1  UNL1        0.0203
      9 C          63.2158   87.3485   12.5669 C.ar    1  UNL1        0.0782
     10 C          64.5330   90.6162   14.3937 C.ar    1  UNL1        0.0015
     11 C          63.7816   91.0939   15.6008 C.ar    1  UNL1        0.0000
     12 C          64.4579   91.9832   16.6018 C.ar    1  UNL1       -0.0001
     13 C          65.8855   92.3946   16.3956 C.ar    1  UNL1        0.0039
     14 C          66.6369   91.9168   15.1885 C.ar    1  UNL1        0.0714
     15 C          65.9606   91.0276   14.1875 C.ar    1  UNL1        0.0039
     16 C          68.0646   92.3283   14.9823 C.3     1  UNL1        0.4186
     17 F          69.4922   92.7397   14.7762 F       1  UNL1       -0.1659
     18 F          68.3039   92.2384   16.4604 F       1  UNL1       -0.1659
     19 F          67.8252   92.4181   13.5043 F       1  UNL1       -0.1659
     20 C          63.6462   84.8620   13.4482 C.3     1  UNL1        0.1920
     21 C          61.6495   81.5199   14.2190 C.3     1  UNL1        0.1150
     22 N          62.5574   82.5049   13.5441 N.am    1  UNL1       -0.2744
     23 C          63.2846   82.1180   12.2905 C.3     1  UNL1        0.1150
     24 C          62.7382   83.8769   14.1230 C.2     1  UNL1        0.2488
     25 O          62.0110   84.2638   15.3766 O.2     1  UNL1       -0.2728
@<TRIPOS>BOND
     1    21    22    1
     2    22    23    1
     3    22    24   am
     4    24    25    2
     5    24    20    1
     6    20     1    1
     7     1     2   ar
     8     2     3   ar
     9     3     4   ar
    10     4     5   ar
    11     5     6   ar
    12     6     7   ar
    13     7    10    1
    14    10    11   ar
    15    11    12   ar
    16    12    13   ar
    17    13    14   ar
    18    14    16    1
    19    16    17    1
    20    16    18    1
    21    16    19    1
    22    14    15   ar
    23     7     8   ar
    24     8     9   ar
    25     9     1   ar
    26     9     4   ar
    27    15    10   ar
