@<TRIPOS>MOLECULE
*****
 30 32 0 0 0
SMALL
GASTEIGER

@<TRIPOS>ATOM
      1 C          62.6905   85.3279   11.4614 C.ar    1  UNL1        0.1344
      2 C          62.8318   85.0235    9.9994 C.ar    1  UNL1        0.0310
      3 C          61.9570   85.7207    9.0002 C.ar    1  UNL1       -0.0067
      4 C          62.0983   85.4163    7.5382 C.3     1  UNL1        0.0319
      5 C          60.9408   86.7223    9.4629 C.ar    1  UNL1        0.0959
      6 C          60.7995   87.0268   10.9248 C.ar    1  UNL1        0.1393
      7 N          61.6743   86.3295   11.9241 N.ar    1  UNL1       -0.2154
      8 N          63.5653   84.6307   12.4607 N.pl3   1  UNL1       -0.2819
      9 H          64.4609   84.9859   12.6634 H       1  UNL1        0.1551
     10 C          62.1154   79.6391   13.3895 C.3     1  UNL1        0.0515
     11 C          62.4093   81.0980   13.5780 C.ar    1  UNL1        0.0548
     12 C          62.9287   82.0355   12.5287 C.ar    1  UNL1        0.0502
     13 C          63.0757   83.3923   13.1511 C.ar    1  UNL1        0.1539
     14 N          62.6472   83.2933   14.5852 N.ar    1  UNL1       -0.1577
     15 N          62.2353   81.8753   14.8491 N.ar    1  UNL1       -0.2786
     16 H          61.9083   81.5176   15.7060 H       1  UNL1        0.1886
     17 C          60.0660   87.4195    8.4636 C.1     1  UNL1        0.1029
     18 N          59.1912   88.1168    7.4643 N.1     1  UNL1       -0.1907
     19 N          59.7833   88.0284   11.3875 N.pl3   1  UNL1       -0.3145
     20 H          58.8609   87.7418   11.5780 H       1  UNL1        0.1483
     21 C          60.1724   89.4667   11.5600 C.3     1  UNL1        0.1362
     22 C          61.6215   89.8495   11.6207 C.3     1  UNL1        0.2266
     23 O          62.3834   89.7009   12.9042 O.3     1  UNL1       -0.4714
     24 C          63.6521   90.4724   13.1169 C.ar    1  UNL1        0.1659
     25 C          64.0869   91.4937   12.1080 C.ar    1  UNL1        0.0392
     26 C          65.3556   92.2652   12.3206 C.ar    1  UNL1        0.0033
     27 C          66.1896   92.0153   13.5422 C.ar    1  UNL1        0.0025
     28 C          65.7548   90.9940   14.5511 C.ar    1  UNL1        0.0328
     29 C          64.4860   90.2225   14.3384 C.ar    1  UNL1        0.1738
     30 F          64.0513   89.2011   15.3473 F       1  UNL1       -0.2010
@<TRIPOS>BOND
     1    10    11    1
     2    11    12   ar
     3    12    13   ar
     4    13     8    1
     5     8     1    1
     6     1     2   ar
     7     2     3   ar
     8     3     4    1
     9     3     5   ar
    10     5    17    1
    11    17    18    3
    12     5     6   ar
    13     6    19    1
    14    19    21    1
    15    21    22    1
    16    22    23    1
    17    23    24    1
    18    24    25   ar
    19    25    26   ar
    20    26    27   ar
    21    27    28   ar
    22    28    29   ar
    23    29    30    1
    24     6     7   ar
    25    13    14   ar
    26    14    15   ar
    27    15    11   ar
    28     7     1   ar
    29    29    24   ar
    30     8     9    1
    31    19    20    1
    32    15    16    1
@<TRIPOS>MOLECULE
*****
 30 32 0 0 0
SMALL
GASTEIGER

@<TRIPOS>ATOM
      1 C          61.6709   89.8136   11.0518 C.ar    1  UNL1        0.1344
      2 C          62.6763   90.7047   10.3849 C.ar    1  UNL1        0.0310
      3 C          63.7968   91.3010   11.1842 C.ar    1  UNL1       -0.0067
      4 C          64.8023   92.1923   10.5172 C.3     1  UNL1        0.0319
      5 C          63.9118   91.0062   12.6504 C.ar    1  UNL1        0.0959
      6 C          62.9063   90.1150   13.3173 C.ar    1  UNL1        0.1393
      7 N          61.7859   89.5187   12.5180 N.ar    1  UNL1       -0.2154
      8 N          60.5503   89.2172   10.2525 N.pl3   1  UNL1       -0.2819
      9 H          59.6606   89.6385   10.2616 H       1  UNL1        0.1551
     10 C          62.8928   85.0433    8.0226 C.3     1  UNL1        0.0515
     11 C          61.8622   86.0604    8.4143 C.ar    1  UNL1        0.0548
     12 C          62.0803   87.2301    9.3277 C.ar    1  UNL1        0.0502
     13 C          60.7854   87.9789    9.4393 C.ar    1  UNL1        0.1539
     14 N          59.7669   87.2720    8.5949 N.ar    1  UNL1       -0.1577
     15 N          60.4323   86.0863    7.9614 N.ar    1  UNL1       -0.2786
     16 H          60.0056   85.4388    7.3549 H       1  UNL1        0.1886
     17 C          65.0323   91.6026   13.4497 C.1     1  UNL1        0.1029
     18 N          66.1528   92.1990   14.2489 N.1     1  UNL1       -0.1907
     19 N          63.0213   89.8202   14.7836 N.pl3   1  UNL1       -0.3145
     20 H          62.5021   90.3465   15.4337 H       1  UNL1        0.1483
     21 C          63.9275   88.7236   15.2593 C.3     1  UNL1        0.1362
     22 C          64.2164   87.5507   14.3700 C.3     1  UNL1        0.2266
     23 O          63.9603   86.1565   14.8607 O.3     1  UNL1       -0.4714
     24 C          63.5952   85.0744   13.8882 C.ar    1  UNL1        0.1659
     25 C          62.9565   85.4279   12.5777 C.ar    1  UNL1        0.0392
     26 C          62.5914   84.3458   11.6052 C.ar    1  UNL1        0.0033
     27 C          62.8649   82.9102   11.9432 C.ar    1  UNL1        0.0025
     28 C          63.5034   82.5567   13.2536 C.ar    1  UNL1        0.0328
     29 C          63.8686   83.6388   14.2261 C.ar    1  UNL1        0.1738
     30 F          64.5072   83.2852   15.5365 F       1  UNL1       -0.2010
@<TRIPOS>BOND
     1    10    11    1
     2    11    12   ar
     3    12    13   ar
     4    13     8    1
     5     8     1    1
     6     1     2   ar
     7     2     3   ar
     8     3     4    1
     9     3     5   ar
    10     5    17    1
    11    17    18    3
    12     5     6   ar
    13     6    19    1
    14    19    21    1
    15    21    22    1
    16    22    23    1
    17    23    24    1
    18    24    25   ar
    19    25    26   ar
    20    26    27   ar
    21    27    28   ar
    22    28    29   ar
    23    29    30    1
    24     6     7   ar
    25    13    14   ar
    26    14    15   ar
    27    15    11   ar
    28     7     1   ar
    29    29    24   ar
    30     8     9    1
    31    19    20    1
    32    15    16    1
@<TRIPOS>MOLECULE
*****
 30 32 0 0 0
SMALL
GASTEIGER

@<TRIPOS>ATOM
      1 C          64.7722   91.6825   12.6003 C.ar    1  UNL1        0.1344
      2 C          64.0532   91.5580   11.2898 C.ar    1  UNL1        0.0310
      3 C          63.1712   90.3734   11.0278 C.ar    1  UNL1       -0.0067
      4 C          62.4521   90.2488    9.7173 C.3     1  UNL1        0.0319
      5 C          63.0081   89.3132   12.0764 C.ar    1  UNL1        0.0959
      6 C          63.7271   89.4377   13.3869 C.ar    1  UNL1        0.1393
      7 N          64.6091   90.6223   13.6489 N.ar    1  UNL1       -0.2154
      8 N          65.6542   92.8671   12.8623 N.pl3   1  UNL1       -0.2819
      9 H          65.7490   93.2175   13.7775 H       1  UNL1        0.1551
     10 C          67.1805   96.3693    9.2174 C.3     1  UNL1        0.0515
     11 C          67.0935   95.1278   10.0547 C.ar    1  UNL1        0.0548
     12 C          66.1239   94.8847   11.1730 C.ar    1  UNL1        0.0502
     13 C          66.3919   93.5180   11.7300 C.ar    1  UNL1        0.1539
     14 N          67.5272   92.9164   10.9559 N.ar    1  UNL1       -0.1577
     15 N          67.9608   93.9113    9.9204 N.ar    1  UNL1       -0.2786
     16 H          68.6871   93.7876    9.2674 H       1  UNL1        0.1886
     17 C          62.1261   88.1285   11.8144 C.1     1  UNL1        0.1029
     18 N          61.2440   86.9440   11.5524 N.1     1  UNL1       -0.1907
     19 N          63.5641   88.3775   14.4355 N.pl3   1  UNL1       -0.3145
     20 H          62.7630   88.3703   15.0078 H       1  UNL1        0.1483
     21 C          64.6215   87.3285   14.6122 C.3     1  UNL1        0.1362
     22 C          64.2450   85.8766   14.6127 C.3     1  UNL1        0.2266
     23 O          62.9358   85.4411   14.0239 O.3     1  UNL1       -0.4714
     24 C          62.7303   84.0084   13.6300 C.ar    1  UNL1        0.1659
     25 C          62.3121   83.0002   14.6589 C.ar    1  UNL1        0.0392
     26 C          62.1065   81.5675   14.2650 C.ar    1  UNL1        0.0033
     27 C          62.3192   81.1431   12.8420 C.ar    1  UNL1        0.0025
     28 C          62.7373   82.1513   11.8131 C.ar    1  UNL1        0.0328
     29 C          62.9429   83.5839   12.2071 C.ar    1  UNL1        0.1738
     30 F          63.3611   84.5922   11.1781 F       1  UNL1       -0.2010
@<TRIPOS>BOND
     1    10    11    1
     2    11    12   ar
     3    12    13   ar
     4    13     8    1
     5     8     1    1
     6     1     2   ar
     7     2     3   ar
     8     3     4    1
     9     3     5   ar
    10     5    17    1
    11    17    18    3
    12     5     6   ar
    13     6    19    1
    14    19    21    1
    15    21    22    1
    16    22    23    1
    17    23    24    1
    18    24    25   ar
    19    25    26   ar
    20    26    27   ar
    21    27    28   ar
    22    28    29   ar
    23    29    30    1
    24     6     7   ar
    25    13    14   ar
    26    14    15   ar
    27    15    11   ar
    28     7     1   ar
    29    29    24   ar
    30     8     9    1
    31    19    20    1
    32    15    16    1
@<TRIPOS>MOLECULE
*****
 30 32 0 0 0
SMALL
GASTEIGER

@<TRIPOS>ATOM
      1 C          64.5880   91.6364   12.3513 C.ar    1  UNL1        0.1344
      2 C          63.8427   91.4461   11.0635 C.ar    1  UNL1        0.0310
      3 C          62.9819   90.2335   10.8674 C.ar    1  UNL1       -0.0067
      4 C          62.2365   90.0432    9.5796 C.3     1  UNL1        0.0319
      5 C          62.8664   89.2111   11.9589 C.ar    1  UNL1        0.0959
      6 C          63.6117   89.4014   13.2466 C.ar    1  UNL1        0.1393
      7 N          64.4725   90.6140   13.4428 N.ar    1  UNL1       -0.2154
      8 N          65.4488   92.8491   12.5475 N.pl3   1  UNL1       -0.2819
      9 H          65.1600   93.7205   12.1919 H       1  UNL1        0.1551
     10 C          69.1846   93.3420   16.2463 C.3     1  UNL1        0.0515
     11 C          68.4668   92.9605   14.9857 C.ar    1  UNL1        0.0548
     12 C          67.0538   93.3195   14.6326 C.ar    1  UNL1        0.0502
     13 C          66.7496   92.7340   13.2855 C.ar    1  UNL1        0.1539
     14 N          67.9746   92.0131   12.8060 N.ar    1  UNL1       -0.1577
     15 N          69.0359   92.1532   13.8568 N.ar    1  UNL1       -0.2786
     16 H          69.9461   91.7806   13.8131 H       1  UNL1        0.1886
     17 C          62.0056   87.9985   11.7626 C.1     1  UNL1        0.1029
     18 N          61.1448   86.7858   11.5663 N.1     1  UNL1       -0.1907
     19 N          63.4962   88.3790   14.3381 N.pl3   1  UNL1       -0.3145
     20 H          62.7127   88.3817   14.9342 H       1  UNL1        0.1483
     21 C          64.5746   87.3526   14.5215 C.3     1  UNL1        0.1362
     22 C          64.2236   85.8948   14.5608 C.3     1  UNL1        0.2266
     23 O          62.9054   85.4259   14.0197 O.3     1  UNL1       -0.4714
     24 C          62.7222   83.9883   13.6327 C.ar    1  UNL1        0.1659
     25 C          62.3006   82.9823   14.6625 C.ar    1  UNL1        0.0392
     26 C          62.1174   81.5447   14.2755 C.ar    1  UNL1        0.0033
     27 C          62.3557   81.1131   12.8588 C.ar    1  UNL1        0.0025
     28 C          62.7772   82.1191   11.8291 C.ar    1  UNL1        0.0328
     29 C          62.9605   83.5567   12.2161 C.ar    1  UNL1        0.1738
     30 F          63.3820   84.5627   11.1864 F       1  UNL1       -0.2010
@<TRIPOS>BOND
     1    10    11    1
     2    11    12   ar
     3    12    13   ar
     4    13     8    1
     5     8     1    1
     6     1     2   ar
     7     2     3   ar
     8     3     4    1
     9     3     5   ar
    10     5    17    1
    11    17    18    3
    12     5     6   ar
    13     6    19    1
    14    19    21    1
    15    21    22    1
    16    22    23    1
    17    23    24    1
    18    24    25   ar
    19    25    26   ar
    20    26    27   ar
    21    27    28   ar
    22    28    29   ar
    23    29    30    1
    24     6     7   ar
    25    13    14   ar
    26    14    15   ar
    27    15    11   ar
    28     7     1   ar
    29    29    24   ar
    30     8     9    1
    31    19    20    1
    32    15    16    1
@<TRIPOS>MOLECULE
*****
 30 32 0 0 0
SMALL
GASTEIGER

@<TRIPOS>ATOM
      1 C          63.7854   84.0474   14.9459 C.ar    1  UNL1        0.1344
      2 C          62.7259   83.0032   15.1381 C.ar    1  UNL1        0.0310
      3 C          62.4276   82.0264   14.0396 C.ar    1  UNL1       -0.0067
      4 C          61.3680   80.9821   14.2317 C.3     1  UNL1        0.0319
      5 C          63.1889   82.0938   12.7489 C.ar    1  UNL1        0.0959
      6 C          64.2484   83.1380   12.5567 C.ar    1  UNL1        0.1393
      7 N          64.5467   84.1148   13.6552 N.ar    1  UNL1       -0.2154
      8 N          64.0837   85.0243   16.0445 N.pl3   1  UNL1       -0.2819
      9 H          64.4106   84.7013   16.9151 H       1  UNL1        0.1551
     10 C          64.4083   89.8768   13.9882 C.3     1  UNL1        0.0515
     11 C          64.0332   88.7238   14.8713 C.ar    1  UNL1        0.0548
     12 C          64.5053   87.3080   14.7209 C.ar    1  UNL1        0.0502
     13 C          63.8840   86.4934   15.8165 C.ar    1  UNL1        0.1539
     14 N          63.0280   87.4057   16.6440 N.ar    1  UNL1       -0.1577
     15 N          63.1201   88.7842   16.0599 N.ar    1  UNL1       -0.2786
     16 H          62.6619   89.5876   16.3974 H       1  UNL1        0.1886
     17 C          62.8906   81.1169   11.6503 C.1     1  UNL1        0.1029
     18 N          62.5922   80.1400   10.5519 N.1     1  UNL1       -0.1907
     19 N          65.0097   83.2054   11.2660 N.pl3   1  UNL1       -0.3145
     20 H          65.9664   82.9739   11.2461 H       1  UNL1        0.1483
     21 C          64.3134   83.6255   10.0056 C.3     1  UNL1        0.1362
     22 C          63.1640   84.5873   10.0686 C.3     1  UNL1        0.2266
     23 O          62.6433   85.2171    8.8107 O.3     1  UNL1       -0.4714
     24 C          61.8009   86.4560    8.8853 C.ar    1  UNL1        0.1659
     25 C          62.2462   87.6161    9.7255 C.ar    1  UNL1        0.0392
     26 C          61.4038   88.8550    9.8001 C.ar    1  UNL1        0.0033
     27 C          60.1163   88.9338    9.0346 C.ar    1  UNL1        0.0025
     28 C          59.6711   87.7737    8.1944 C.ar    1  UNL1        0.0328
     29 C          60.5134   86.5348    8.1198 C.ar    1  UNL1        0.1738
     30 F          60.0682   85.3746    7.2796 F       1  UNL1       -0.2010
@<TRIPOS>BOND
     1    10    11    1
     2    11    12   ar
     3    12    13   ar
     4    13     8    1
     5     8     1    1
     6     1     2   ar
     7     2     3   ar
     8     3     4    1
     9     3     5   ar
    10     5    17    1
    11    17    18    3
    12     5     6   ar
    13     6    19    1
    14    19    21    1
    15    21    22    1
    16    22    23    1
    17    23    24    1
    18    24    25   ar
    19    25    26   ar
    20    26    27   ar
    21    27    28   ar
    22    28    29   ar
    23    29    30    1
    24     6     7   ar
    25    13    14   ar
    26    14    15   ar
    27    15    11   ar
    28     7     1   ar
    29    29    24   ar
    30     8     9    1
    31    19    20    1
    32    15    16    1
@<TRIPOS>MOLECULE
*****
 30 32 0 0 0
SMALL
GASTEIGER

@<TRIPOS>ATOM
      1 C          61.4023   88.9545   11.2435 C.ar    1  UNL1        0.1344
      2 C          60.6374   89.3910   10.0293 C.ar    1  UNL1        0.0310
      3 C          60.3576   88.4125    8.9274 C.ar    1  UNL1       -0.0067
      4 C          59.5926   88.8489    7.7131 C.3     1  UNL1        0.0319
      5 C          60.8426   86.9975    9.0398 C.ar    1  UNL1        0.0959
      6 C          61.6076   86.5611   10.2540 C.ar    1  UNL1        0.1393
      7 N          61.8874   87.5396   11.3559 N.ar    1  UNL1       -0.2154
      8 N          61.6821   89.9331   12.3455 N.pl3   1  UNL1       -0.2819
      9 H          61.0316   90.0526   13.0747 H       1  UNL1        0.1551
     10 C          65.8864   92.6623   10.6854 C.3     1  UNL1        0.0515
     11 C          64.8857   91.9840   11.5734 C.ar    1  UNL1        0.0548
     12 C          63.6623   91.2444   11.1191 C.ar    1  UNL1        0.0502
     13 C          62.9532   90.7295   12.3364 C.ar    1  UNL1        0.1539
     14 N          63.7383   91.1508   13.5431 N.ar    1  UNL1       -0.1577
     15 N          64.9327   91.9261   13.0716 N.ar    1  UNL1       -0.2786
     16 H          65.6257   92.3267   13.6447 H       1  UNL1        0.1886
     17 C          60.5628   86.0190    7.9378 C.1     1  UNL1        0.1029
     18 N          60.2830   85.0405    6.8359 N.1     1  UNL1       -0.1907
     19 N          62.0926   85.1461   10.3664 N.pl3   1  UNL1       -0.3145
     20 H          61.5050   84.4529   10.7449 H       1  UNL1        0.1483
     21 C          63.4731   84.7874    9.9020 C.3     1  UNL1        0.1362
     22 C          63.8855   83.3477    9.8174 C.3     1  UNL1        0.2266
     23 O          64.4592   82.6599   11.0207 O.3     1  UNL1       -0.4714
     24 C          63.5689   82.2943   12.1712 C.ar    1  UNL1        0.1659
     25 C          63.4377   83.2224   13.3424 C.ar    1  UNL1        0.0392
     26 C          62.5473   82.8568   14.4929 C.ar    1  UNL1        0.0033
     27 C          61.7882   81.5632   14.4722 C.ar    1  UNL1        0.0025
     28 C          61.9194   80.6352   13.3010 C.ar    1  UNL1        0.0328
     29 C          62.8097   81.0008   12.1505 C.ar    1  UNL1        0.1738
     30 F          62.9409   80.0728   10.9793 F       1  UNL1       -0.2010
@<TRIPOS>BOND
     1    10    11    1
     2    11    12   ar
     3    12    13   ar
     4    13     8    1
     5     8     1    1
     6     1     2   ar
     7     2     3   ar
     8     3     4    1
     9     3     5   ar
    10     5    17    1
    11    17    18    3
    12     5     6   ar
    13     6    19    1
    14    19    21    1
    15    21    22    1
    16    22    23    1
    17    23    24    1
    18    24    25   ar
    19    25    26   ar
    20    26    27   ar
    21    27    28   ar
    22    28    29   ar
    23    29    30    1
    24     6     7   ar
    25    13    14   ar
    26    14    15   ar
    27    15    11   ar
    28     7     1   ar
    29    29    24   ar
    30     8     9    1
    31    19    20    1
    32    15    16    1
@<TRIPOS>MOLECULE
*****
 30 32 0 0 0
SMALL
GASTEIGER

@<TRIPOS>ATOM
      1 C          63.1352   85.3729   11.7132 C.ar    1  UNL1        0.1344
      2 C          62.6379   84.9969   10.3489 C.ar    1  UNL1        0.0310
      3 C          61.8683   85.9911    9.5308 C.ar    1  UNL1       -0.0067
      4 C          61.3710   85.6151    8.1665 C.3     1  UNL1        0.0319
      5 C          61.5961   87.3613   10.0770 C.ar    1  UNL1        0.0959
      6 C          62.0934   87.7374   11.4413 C.ar    1  UNL1        0.1393
      7 N          62.8630   86.7431   12.2593 N.ar    1  UNL1       -0.2154
      8 N          63.9048   84.3787   12.5313 N.pl3   1  UNL1       -0.2819
      9 H          64.8714   84.5005   12.6727 H       1  UNL1        0.1551
     10 C          62.0705   79.4905   13.3198 C.3     1  UNL1        0.0515
     11 C          62.3584   80.9520   13.4965 C.ar    1  UNL1        0.0548
     12 C          63.1750   81.8076   12.5740 C.ar    1  UNL1        0.0502
     13 C          63.2015   83.1988   13.1341 C.ar    1  UNL1        0.1539
     14 N          62.4014   83.2030   14.4029 N.ar    1  UNL1       -0.1577
     15 N          61.8803   81.8144   14.6269 N.ar    1  UNL1       -0.2786
     16 H          61.3225   81.5206   15.3830 H       1  UNL1        0.1886
     17 C          60.8265   88.3556    9.2588 C.1     1  UNL1        0.1029
     18 N          60.0570   89.3498    8.4407 N.1     1  UNL1       -0.1907
     19 N          61.8212   89.1076   11.9874 N.pl3   1  UNL1       -0.3145
     20 H          60.9005   89.3738   12.2126 H       1  UNL1        0.1483
     21 C          62.9517   90.0723   12.1905 C.3     1  UNL1        0.1362
     22 C          63.4560   90.3561   13.5744 C.3     1  UNL1        0.2266
     23 O          64.4828   89.4574   14.1975 O.3     1  UNL1       -0.4714
     24 C          64.0601   88.3989   15.1727 C.ar    1  UNL1        0.1659
     25 C          64.3884   86.9596   14.9064 C.ar    1  UNL1        0.0392
     26 C          63.9657   85.9012   15.8816 C.ar    1  UNL1        0.0033
     27 C          63.2148   86.2820   17.1231 C.ar    1  UNL1        0.0025
     28 C          62.8866   87.7212   17.3893 C.ar    1  UNL1        0.0328
     29 C          63.3093   88.7796   16.4141 C.ar    1  UNL1        0.1738
     30 F          62.9810   90.2189   16.6804 F       1  UNL1       -0.2010
@<TRIPOS>BOND
     1    10    11    1
     2    11    12   ar
     3    12    13   ar
     4    13     8    1
     5     8     1    1
     6     1     2   ar
     7     2     3   ar
     8     3     4    1
     9     3     5   ar
    10     5    17    1
    11    17    18    3
    12     5     6   ar
    13     6    19    1
    14    19    21    1
    15    21    22    1
    16    22    23    1
    17    23    24    1
    18    24    25   ar
    19    25    26   ar
    20    26    27   ar
    21    27    28   ar
    22    28    29   ar
    23    29    30    1
    24     6     7   ar
    25    13    14   ar
    26    14    15   ar
    27    15    11   ar
    28     7     1   ar
    29    29    24   ar
    30     8     9    1
    31    19    20    1
    32    15    16    1
@<TRIPOS>MOLECULE
*****
 30 32 0 0 0
SMALL
GASTEIGER

@<TRIPOS>ATOM
      1 C          62.2344   87.5391   10.9053 C.ar    1  UNL1        0.1344
      2 C          62.3825   88.9538   10.4293 C.ar    1  UNL1        0.0310
      3 C          63.0679   89.9686   11.2954 C.ar    1  UNL1       -0.0067
      4 C          63.2160   91.3834   10.8194 C.3     1  UNL1        0.0319
      5 C          63.6053   89.5688   12.6376 C.ar    1  UNL1        0.0959
      6 C          63.4572   88.1541   13.1136 C.ar    1  UNL1        0.1393
      7 N          62.7718   87.1392   12.2474 N.ar    1  UNL1       -0.2154
      8 N          61.5490   86.5242   10.0391 N.pl3   1  UNL1       -0.2819
      9 H          61.7035   85.5636   10.1899 H       1  UNL1        0.1551
     10 C          58.8839   89.5776    6.6547 C.3     1  UNL1        0.0515
     11 C          59.4031   88.3763    7.3877 C.ar    1  UNL1        0.0548
     12 C          60.3976   88.3903    8.5106 C.ar    1  UNL1        0.0502
     13 C          60.6282   86.9728    8.9433 C.ar    1  UNL1        0.1539
     14 N          59.7762   86.0826    8.0879 N.ar    1  UNL1       -0.1577
     15 N          59.0191   86.9499    7.1264 N.ar    1  UNL1       -0.2786
     16 H          58.3820   86.6379    6.4438 H       1  UNL1        0.1886
     17 C          64.2907   90.5837   13.5037 C.1     1  UNL1        0.1029
     18 N          64.9761   91.5986   14.3699 N.1     1  UNL1       -0.1907
     19 N          63.9946   87.7542   14.4557 N.pl3   1  UNL1       -0.3145
     20 H          63.9300   88.3754   15.2168 H       1  UNL1        0.1483
     21 C          64.6303   86.4079   14.6383 C.3     1  UNL1        0.1362
     22 C          63.8425   85.2818   15.2392 C.3     1  UNL1        0.2266
     23 O          62.6224   84.7622   14.5381 O.3     1  UNL1       -0.4714
     24 C          62.6462   83.4064   13.8968 C.ar    1  UNL1        0.1659
     25 C          61.9139   82.2625   14.5336 C.ar    1  UNL1        0.0392
     26 C          61.9377   80.9067   13.8923 C.ar    1  UNL1        0.0033
     27 C          62.6939   80.6947   12.6143 C.ar    1  UNL1        0.0025
     28 C          63.4262   81.8385   11.9776 C.ar    1  UNL1        0.0328
     29 C          63.4023   83.1943   12.6188 C.ar    1  UNL1        0.1738
     30 F          64.1347   84.3381   11.9820 F       1  UNL1       -0.2010
@<TRIPOS>BOND
     1    10    11    1
     2    11    12   ar
     3    12    13   ar
     4    13     8    1
     5     8     1    1
     6     1     2   ar
     7     2     3   ar
     8     3     4    1
     9     3     5   ar
    10     5    17    1
    11    17    18    3
    12     5     6   ar
    13     6    19    1
    14    19    21    1
    15    21    22    1
    16    22    23    1
    17    23    24    1
    18    24    25   ar
    19    25    26   ar
    20    26    27   ar
    21    27    28   ar
    22    28    29   ar
    23    29    30    1
    24     6     7   ar
    25    13    14   ar
    26    14    15   ar
    27    15    11   ar
    28     7     1   ar
    29    29    24   ar
    30     8     9    1
    31    19    20    1
    32    15    16    1
@<TRIPOS>MOLECULE
*****
 30 32 0 0 0
SMALL
GASTEIGER

@<TRIPOS>ATOM
      1 C          62.9792   86.3461   12.3513 C.ar    1  UNL1        0.1344
      2 C          62.2885   85.6597   11.2103 C.ar    1  UNL1        0.0310
      3 C          61.5714   86.4696   10.1712 C.ar    1  UNL1       -0.0067
      4 C          60.8807   85.7833    9.0302 C.3     1  UNL1        0.0319
      5 C          61.5449   87.9659   10.2732 C.ar    1  UNL1        0.0959
      6 C          62.2355   88.6523   11.4141 C.ar    1  UNL1        0.1393
      7 N          62.9526   87.8424   12.4532 N.ar    1  UNL1       -0.2154
      8 N          63.6963   85.5362   13.3904 N.pl3   1  UNL1       -0.2819
      9 H          64.4986   85.8995   13.8305 H       1  UNL1        0.1551
     10 C          62.5002   80.3976   13.1795 C.3     1  UNL1        0.0515
     11 C          62.6414   81.8108   13.6621 C.ar    1  UNL1        0.0548
     12 C          63.2624   82.9445   12.9010 C.ar    1  UNL1        0.0502
     13 C          63.1912   84.1728   13.7590 C.ar    1  UNL1        0.1539
     14 N          62.5262   83.7983   15.0504 N.ar    1  UNL1       -0.1577
     15 N          62.1864   82.3385   14.9905 N.ar    1  UNL1       -0.2786
     16 H          61.7426   81.8181   15.6987 H       1  UNL1        0.1886
     17 C          60.8277   88.7759    9.2340 C.1     1  UNL1        0.1029
     18 N          60.1105   89.5857    8.1950 N.1     1  UNL1       -0.1907
     19 N          62.2090   90.1486   11.5161 N.pl3   1  UNL1       -0.3145
     20 H          61.3531   90.6182   11.6434 H       1  UNL1        0.1483
     21 C          63.4864   90.9294   11.4240 C.3     1  UNL1        0.1362
     22 C          64.2248   91.3095   12.6732 C.3     1  UNL1        0.2266
     23 O          65.4219   92.2097   12.5922 O.3     1  UNL1       -0.4714
     24 C          66.3828   92.2850   13.7416 C.ar    1  UNL1        0.1659
     25 C          65.8873   92.6448   15.1110 C.ar    1  UNL1        0.0392
     26 C          66.8482   92.7201   16.2604 C.ar    1  UNL1        0.0033
     27 C          68.3045   92.4356   16.0404 C.ar    1  UNL1        0.0025
     28 C          68.7998   92.0758   14.6711 C.ar    1  UNL1        0.0328
     29 C          67.8390   92.0006   13.5217 C.ar    1  UNL1        0.1738
     30 F          68.3344   91.6408   12.1523 F       1  UNL1       -0.2010
@<TRIPOS>BOND
     1    10    11    1
     2    11    12   ar
     3    12    13   ar
     4    13     8    1
     5     8     1    1
     6     1     2   ar
     7     2     3   ar
     8     3     4    1
     9     3     5   ar
    10     5    17    1
    11    17    18    3
    12     5     6   ar
    13     6    19    1
    14    19    21    1
    15    21    22    1
    16    22    23    1
    17    23    24    1
    18    24    25   ar
    19    25    26   ar
    20    26    27   ar
    21    27    28   ar
    22    28    29   ar
    23    29    30    1
    24     6     7   ar
    25    13    14   ar
    26    14    15   ar
    27    15    11   ar
    28     7     1   ar
    29    29    24   ar
    30     8     9    1
    31    19    20    1
    32    15    16    1
