@<TRIPOS>MOLECULE
*****
 28 31 0 0 0
SMALL
GASTEIGER

@<TRIPOS>ATOM
      1 C          63.8021   88.0618   15.1059 C.ar    1  UNL1        0.1655
      2 N          63.9567   88.4760   13.6725 N.ar    1  UNL1       -0.2239
      3 C          63.7728   89.9627   13.5970 C.ar    1  UNL1        0.0913
      4 C          63.5044   90.4675   14.9837 C.ar    1  UNL1        0.0573
      5 S          63.5225   89.2928   15.9163 S.2     1  UNL1       -0.0508
      6 C          63.8446   90.7979   12.3531 C.ar    1  UNL1        0.0403
      7 C          63.0387   90.5918   11.1049 C.ar    1  UNL1        0.1021
      8 N          63.4309   91.6525   10.1195 N.ar    1  UNL1       -0.2269
      9 C          64.4792   92.5142   10.7587 C.ar    1  UNL1        0.1406
     10 N          65.2340   93.7114   10.2620 N.ar    1  UNL1       -0.3374
     11 C          66.2445   94.3806   11.1458 C.ar    1  UNL1        0.0735
     12 C          66.5001   93.8525   12.5263 C.ar    1  UNL1        0.0186
     13 C          65.7453   92.6552   13.0229 C.ar    1  UNL1        0.0046
     14 C          64.7349   91.9860   12.1391 C.ar    1  UNL1        0.0370
     15 H          65.0662   94.0581    9.3559 H       1  UNL1        0.1674
     16 C          63.7378   85.4950   14.7099 C.2     1  UNL1        0.2320
     17 O          63.4611   85.7265   13.2539 O.2     1  UNL1       -0.2744
     18 N          63.9083   86.6627   15.6358 N.am    1  UNL1       -0.2639
     19 H          64.0900   86.5107   16.5914 H       1  UNL1        0.1567
     20 C          63.8441   84.0958   15.2399 C.3     1  UNL1        0.1117
     21 C          61.5298   81.1633   13.9003 C.ar    1  UNL1        0.0681
     22 C          62.3649   80.6363   12.7712 C.ar    1  UNL1        0.0103
     23 C          63.6931   81.2625   12.4650 C.ar    1  UNL1        0.0004
     24 C          64.1862   82.4157   13.2879 C.ar    1  UNL1       -0.0037
     25 C          63.3510   82.9426   14.4170 C.ar    1  UNL1       -0.0124
     26 C          62.0228   82.3164   14.7232 C.ar    1  UNL1        0.0065
     27 N          58.8733   79.9109   14.5128 N.1     1  UNL1       -0.1908
     28 C          60.2015   80.5371   14.2066 C.1     1  UNL1        0.1004
@<TRIPOS>BOND
     1    27    28    3
     2    28    21    1
     3    21    22   ar
     4    22    23   ar
     5    23    24   ar
     6    24    25   ar
     7    25    20    1
     8    20    16    1
     9    16    17    2
    10    16    18   am
    11    18     1    1
    12     1     2   ar
    13     2     3   ar
    14     3     6    1
    15     6     7   ar
    16     7     8   ar
    17     8     9   ar
    18     9    10   ar
    19    10    11   ar
    20    11    12   ar
    21    12    13   ar
    22    13    14   ar
    23     3     4   ar
    24     4     5   ar
    25    25    26   ar
    26    26    21   ar
    27     5     1   ar
    28    14     6   ar
    29    14     9    1
    30    18    19    1
    31    10    15    1
@<TRIPOS>MOLECULE
*****
 28 31 0 0 0
SMALL
GASTEIGER

@<TRIPOS>ATOM
      1 C          64.0283   86.9076   14.9032 C.ar    1  UNL1        0.1655
      2 N          63.7525   85.8013   13.9284 N.ar    1  UNL1       -0.2239
      3 C          63.2025   84.6349   14.6944 C.ar    1  UNL1        0.0913
      4 C          63.1384   85.0201   16.1427 C.ar    1  UNL1        0.0573
      5 S          63.6488   86.4247   16.2717 S.2     1  UNL1       -0.0508
      6 C          62.7892   83.3149   14.1141 C.ar    1  UNL1        0.0403
      7 C          61.9297   82.2861   14.7872 C.ar    1  UNL1        0.1021
      8 N          61.7721   81.1274   13.8479 N.ar    1  UNL1       -0.2269
      9 C          62.5342   81.4399   12.5942 C.ar    1  UNL1        0.1406
     10 N          62.7369   80.6681   11.3241 N.ar    1  UNL1       -0.3374
     11 C          63.5682   81.2483   10.2185 C.ar    1  UNL1        0.0735
     12 C          64.1967   82.6002   10.3831 C.ar    1  UNL1        0.0186
     13 C          63.9940   83.3720   11.6532 C.ar    1  UNL1        0.0046
     14 C          63.1627   82.7919   12.7587 C.ar    1  UNL1        0.0370
     15 H          62.3243   79.7808   11.2161 H       1  UNL1        0.1674
     16 C          63.8174   89.4969   14.9255 C.2     1  UNL1        0.2320
     17 O          62.4916   89.3830   15.6177 O.2     1  UNL1       -0.2744
     18 N          64.5858   88.2592   14.5683 N.am    1  UNL1       -0.2639
     19 H          65.4560   88.3340   14.1140 H       1  UNL1        0.1567
     20 C          64.3750   90.8486   14.5906 C.3     1  UNL1        0.1117
     21 C          65.3805   92.8598   11.3205 C.ar    1  UNL1        0.0681
     22 C          64.4390   92.2605   10.3183 C.ar    1  UNL1        0.0103
     23 C          63.4760   91.1905   10.7402 C.ar    1  UNL1        0.0004
     24 C          63.4547   90.7199   12.1644 C.ar    1  UNL1       -0.0037
     25 C          64.3963   91.3192   13.1666 C.ar    1  UNL1       -0.0124
     26 C          65.3592   92.3892   12.7445 C.ar    1  UNL1        0.0065
     27 N          67.3064   94.9996   10.4766 N.1     1  UNL1       -0.1908
     28 C          66.3434   93.9297   10.8985 C.1     1  UNL1        0.1004
@<TRIPOS>BOND
     1    27    28    3
     2    28    21    1
     3    21    22   ar
     4    22    23   ar
     5    23    24   ar
     6    24    25   ar
     7    25    20    1
     8    20    16    1
     9    16    17    2
    10    16    18   am
    11    18     1    1
    12     1     2   ar
    13     2     3   ar
    14     3     6    1
    15     6     7   ar
    16     7     8   ar
    17     8     9   ar
    18     9    10   ar
    19    10    11   ar
    20    11    12   ar
    21    12    13   ar
    22    13    14   ar
    23     3     4   ar
    24     4     5   ar
    25    25    26   ar
    26    26    21   ar
    27     5     1   ar
    28    14     6   ar
    29    14     9    1
    30    18    19    1
    31    10    15    1
@<TRIPOS>MOLECULE
*****
 28 31 0 0 0
SMALL
GASTEIGER

@<TRIPOS>ATOM
      1 C          62.8047   89.3584   11.4939 C.ar    1  UNL1        0.1655
      2 N          63.8809   90.0910   12.2390 N.ar    1  UNL1       -0.2239
      3 C          64.0953   91.4128   11.5632 C.ar    1  UNL1        0.0913
      4 C          63.1516   91.4973   10.4003 C.ar    1  UNL1        0.0573
      5 S          62.3539   90.2277   10.3575 S.2     1  UNL1       -0.0508
      6 C          65.0804   92.4653   11.9774 C.ar    1  UNL1        0.0403
      7 C          65.5632   93.6040   11.1287 C.ar    1  UNL1        0.1021
      8 N          66.5369   94.4064   11.9399 N.ar    1  UNL1       -0.2269
      9 C          66.6559   93.7637   13.2900 C.ar    1  UNL1        0.1406
     10 N          67.4676   94.1158   14.5012 N.ar    1  UNL1       -0.3374
     11 C          67.3791   93.2683   15.7356 C.ar    1  UNL1        0.0735
     12 C          66.4790   92.0686   15.7588 C.ar    1  UNL1        0.0186
     13 C          65.6673   91.7165   14.5476 C.ar    1  UNL1        0.0046
     14 C          65.7557   92.5640   13.3132 C.ar    1  UNL1        0.0370
     15 H          68.0584   94.9032   14.4860 H       1  UNL1        0.1674
     16 C          62.0748   86.9820   10.7393 C.2     1  UNL1        0.2320
     17 O          62.4090   87.3303    9.3191 O.2     1  UNL1       -0.2744
     18 N          62.2726   87.9961   11.8267 N.am    1  UNL1       -0.2639
     19 H          62.0533   87.7675   12.7588 H       1  UNL1        0.1567
     20 C          61.5427   85.6196   11.0721 C.3     1  UNL1        0.1117
     21 C          63.3224   82.2373   12.1411 C.ar    1  UNL1        0.0681
     22 C          64.2881   82.0546   11.0080 C.ar    1  UNL1        0.0103
     23 C          64.3386   83.0602    9.8961 C.ar    1  UNL1        0.0004
     24 C          63.4235   84.2486    9.9175 C.ar    1  UNL1       -0.0037
     25 C          62.4578   84.4312   11.0508 C.ar    1  UNL1       -0.0124
     26 C          62.4073   83.4255   12.1626 C.ar    1  UNL1        0.0065
     27 N          63.2213   80.2260   14.3648 N.1     1  UNL1       -0.1908
     28 C          63.2719   81.2316   13.2530 C.1     1  UNL1        0.1004
@<TRIPOS>BOND
     1    27    28    3
     2    28    21    1
     3    21    22   ar
     4    22    23   ar
     5    23    24   ar
     6    24    25   ar
     7    25    20    1
     8    20    16    1
     9    16    17    2
    10    16    18   am
    11    18     1    1
    12     1     2   ar
    13     2     3   ar
    14     3     6    1
    15     6     7   ar
    16     7     8   ar
    17     8     9   ar
    18     9    10   ar
    19    10    11   ar
    20    11    12   ar
    21    12    13   ar
    22    13    14   ar
    23     3     4   ar
    24     4     5   ar
    25    25    26   ar
    26    26    21   ar
    27     5     1   ar
    28    14     6   ar
    29    14     9    1
    30    18    19    1
    31    10    15    1
@<TRIPOS>MOLECULE
*****
 28 31 0 0 0
SMALL
GASTEIGER

@<TRIPOS>ATOM
      1 C          63.6691   88.2317   15.5871 C.ar    1  UNL1        0.1655
      2 N          64.7336   88.8321   14.7174 N.ar    1  UNL1       -0.2239
      3 C          64.8019   90.3006   15.0151 C.ar    1  UNL1        0.0913
      4 C          63.7796   90.6080   16.0689 C.ar    1  UNL1        0.0573
      5 S          63.0795   89.3293   16.4224 S.2     1  UNL1       -0.0508
      6 C          65.7296   91.2885   14.3720 C.ar    1  UNL1        0.0403
      7 C          66.9702   91.8636   14.9886 C.ar    1  UNL1        0.1021
      8 N          67.5868   92.8052   13.9971 N.ar    1  UNL1       -0.2269
      9 C          66.7274   92.8120   12.7677 C.ar    1  UNL1        0.1406
     10 N          66.8417   93.5506   11.4672 N.ar    1  UNL1       -0.3374
     11 C          65.8082   93.3518   10.3985 C.ar    1  UNL1        0.0735
     12 C          64.6604   92.4144   10.6302 C.ar    1  UNL1        0.0186
     13 C          64.5460   91.6758   11.9307 C.ar    1  UNL1        0.0046
     14 C          65.5796   91.8746   12.9995 C.ar    1  UNL1        0.0370
     15 H          67.5951   94.1658   11.3151 H       1  UNL1        0.1674
     16 C          64.2687   85.7213   15.2908 C.2     1  UNL1        0.2320
     17 O          65.6762   86.0993   14.9357 O.2     1  UNL1       -0.2744
     18 N          63.2652   86.7875   15.6165 N.am    1  UNL1       -0.2639
     19 H          62.3414   86.5394   15.8495 H       1  UNL1        0.1567
     20 C          63.8648   84.2770   15.3201 C.3     1  UNL1        0.1117
     21 C          63.1998   83.6001   11.4665 C.ar    1  UNL1        0.0681
     22 C          62.9178   82.1270   11.4820 C.ar    1  UNL1        0.0103
     23 C          62.9515   81.3704   12.7768 C.ar    1  UNL1        0.0004
     24 C          63.2671   82.0871   14.0562 C.ar    1  UNL1       -0.0037
     25 C          63.5491   83.5604   14.0407 C.ar    1  UNL1       -0.0124
     26 C          63.5154   84.3168   12.7458 C.ar    1  UNL1        0.0065
     27 N          63.1325   85.1132    8.8769 N.1     1  UNL1       -0.1908
     28 C          63.1661   84.3567   10.1717 C.1     1  UNL1        0.1004
@<TRIPOS>BOND
     1    27    28    3
     2    28    21    1
     3    21    22   ar
     4    22    23   ar
     5    23    24   ar
     6    24    25   ar
     7    25    20    1
     8    20    16    1
     9    16    17    2
    10    16    18   am
    11    18     1    1
    12     1     2   ar
    13     2     3   ar
    14     3     6    1
    15     6     7   ar
    16     7     8   ar
    17     8     9   ar
    18     9    10   ar
    19    10    11   ar
    20    11    12   ar
    21    12    13   ar
    22    13    14   ar
    23     3     4   ar
    24     4     5   ar
    25    25    26   ar
    26    26    21   ar
    27     5     1   ar
    28    14     6   ar
    29    14     9    1
    30    18    19    1
    31    10    15    1
@<TRIPOS>MOLECULE
*****
 28 31 0 0 0
SMALL
GASTEIGER

@<TRIPOS>ATOM
      1 C          61.3437   89.4943   12.1579 C.ar    1  UNL1        0.1655
      2 N          61.5933   88.6416   10.9492 N.ar    1  UNL1       -0.2239
      3 C          60.2640   88.2593   10.3690 C.ar    1  UNL1        0.0913
      4 C          59.1927   88.8756   11.2189 C.ar    1  UNL1        0.0573
      5 S          59.8600   89.6389   12.3245 S.2     1  UNL1       -0.0508
      6 C          60.0445   87.4098    9.1524 C.ar    1  UNL1        0.0403
      7 C          58.7939   87.3601    8.3257 C.ar    1  UNL1        0.1021
      8 N          59.0136   86.3804    7.2113 N.ar    1  UNL1       -0.2269
      9 C          60.4000   85.8247    7.3492 C.ar    1  UNL1        0.1406
     10 N          61.1645   84.8216    6.5373 N.ar    1  UNL1       -0.3374
     11 C          62.5662   84.4546    6.9251 C.ar    1  UNL1        0.0735
     12 C          63.2034   85.0908    8.1248 C.ar    1  UNL1        0.0186
     13 C          62.4389   86.0940    8.9367 C.ar    1  UNL1        0.0046
     14 C          61.0372   86.4609    8.5488 C.ar    1  UNL1        0.0370
     15 H          60.7463   84.4040    5.7499 H       1  UNL1        0.1674
     16 C          63.5537   89.2648   13.5043 C.2     1  UNL1        0.2320
     17 O          63.6644   87.8309   13.0783 O.2     1  UNL1       -0.2744
     18 N          62.3933   90.0965   13.0441 N.am    1  UNL1       -0.2639
     19 H          62.3206   91.0376   13.3237 H       1  UNL1        0.1567
     20 C          64.6033   89.8671   14.3906 C.3     1  UNL1        0.1117
     21 C          66.9467   93.0676   14.5138 C.ar    1  UNL1        0.0681
     22 C          66.6335   93.6994   13.1899 C.ar    1  UNL1        0.0103
     23 C          65.6436   93.0538   12.2662 C.ar    1  UNL1        0.0004
     24 C          64.9668   91.7763   12.6664 C.ar    1  UNL1       -0.0037
     25 C          65.2801   91.1445   13.9904 C.ar    1  UNL1       -0.0124
     26 C          66.2700   91.7902   14.9141 C.ar    1  UNL1        0.0065
     27 N          68.9265   94.3589   16.3612 N.1     1  UNL1       -0.1908
     28 C          67.9366   93.7133   15.4375 C.1     1  UNL1        0.1004
@<TRIPOS>BOND
     1    27    28    3
     2    28    21    1
     3    21    22   ar
     4    22    23   ar
     5    23    24   ar
     6    24    25   ar
     7    25    20    1
     8    20    16    1
     9    16    17    2
    10    16    18   am
    11    18     1    1
    12     1     2   ar
    13     2     3   ar
    14     3     6    1
    15     6     7   ar
    16     7     8   ar
    17     8     9   ar
    18     9    10   ar
    19    10    11   ar
    20    11    12   ar
    21    12    13   ar
    22    13    14   ar
    23     3     4   ar
    24     4     5   ar
    25    25    26   ar
    26    26    21   ar
    27     5     1   ar
    28    14     6   ar
    29    14     9    1
    30    18    19    1
    31    10    15    1
@<TRIPOS>MOLECULE
*****
 28 31 0 0 0
SMALL
GASTEIGER

@<TRIPOS>ATOM
      1 C          63.1588   88.7414   12.4395 C.ar    1  UNL1        0.1655
      2 N          63.7977   89.0916   13.7507 N.ar    1  UNL1       -0.2239
      3 C          64.0345   90.5726   13.7702 C.ar    1  UNL1        0.0913
      4 C          63.5420   91.1379   12.4711 C.ar    1  UNL1        0.0573
      5 S          63.0008   90.0062   11.6486 S.2     1  UNL1       -0.0508
      6 C          64.6549   91.3516   14.8920 C.ar    1  UNL1        0.0403
      7 C          63.9814   91.7373   16.1756 C.ar    1  UNL1        0.1021
      8 N          64.9680   92.5058   17.0039 N.ar    1  UNL1       -0.2269
      9 C          66.2512   92.5950   16.2322 C.ar    1  UNL1        0.1406
     10 N          67.5708   93.2336   16.5494 N.ar    1  UNL1       -0.3374
     11 C          68.6969   93.1589   15.5614 C.ar    1  UNL1        0.0735
     12 C          68.5034   92.4456   14.2561 C.ar    1  UNL1        0.0186
     13 C          67.1838   91.8070   13.9389 C.ar    1  UNL1        0.0046
     14 C          66.0577   91.8817   14.9269 C.ar    1  UNL1        0.0370
     15 H          67.6979   93.7018   17.4061 H       1  UNL1        0.1674
     16 C          61.8754   87.1981   10.7901 C.2     1  UNL1        0.2320
     17 O          61.4099   88.4020   10.0258 O.2     1  UNL1       -0.2744
     18 N          62.7498   87.3679   11.9969 N.am    1  UNL1       -0.2639
     19 H          63.0553   86.5778   12.4985 H       1  UNL1        0.1567
     20 C          61.4664   85.8245   10.3475 C.3     1  UNL1        0.1117
     21 C          63.1457   82.6551   12.0459 C.ar    1  UNL1        0.0681
     22 C          64.2108   82.3265   11.0421 C.ar    1  UNL1        0.0103
     23 C          64.3611   83.1639    9.8067 C.ar    1  UNL1        0.0004
     24 C          63.4463   84.3300    9.5751 C.ar    1  UNL1       -0.0037
     25 C          62.3811   84.6585   10.5790 C.ar    1  UNL1       -0.0124
     26 C          62.2309   83.8210   11.8144 C.ar    1  UNL1        0.0065
     27 N          62.8451   80.9803   14.5167 N.1     1  UNL1       -0.1908
     28 C          62.9954   81.8177   13.2813 C.1     1  UNL1        0.1004
@<TRIPOS>BOND
     1    27    28    3
     2    28    21    1
     3    21    22   ar
     4    22    23   ar
     5    23    24   ar
     6    24    25   ar
     7    25    20    1
     8    20    16    1
     9    16    17    2
    10    16    18   am
    11    18     1    1
    12     1     2   ar
    13     2     3   ar
    14     3     6    1
    15     6     7   ar
    16     7     8   ar
    17     8     9   ar
    18     9    10   ar
    19    10    11   ar
    20    11    12   ar
    21    12    13   ar
    22    13    14   ar
    23     3     4   ar
    24     4     5   ar
    25    25    26   ar
    26    26    21   ar
    27     5     1   ar
    28    14     6   ar
    29    14     9    1
    30    18    19    1
    31    10    15    1
@<TRIPOS>MOLECULE
*****
 28 31 0 0 0
SMALL
GASTEIGER

@<TRIPOS>ATOM
      1 C          63.4415   87.4851   15.6340 C.ar    1  UNL1        0.1655
      2 N          64.0845   88.3047   14.5548 N.ar    1  UNL1       -0.2239
      3 C          64.0968   89.7356   15.0043 C.ar    1  UNL1        0.0913
      4 C          63.4614   89.8005   16.3616 C.ar    1  UNL1        0.0573
      5 S          63.0564   88.4096   16.7507 S.2     1  UNL1       -0.0508
      6 C          64.6478   90.8977   14.2323 C.ar    1  UNL1        0.0403
      7 C          64.2033   91.3416   12.8702 C.ar    1  UNL1        0.1021
      8 N          65.0208   92.5382   12.4830 N.ar    1  UNL1       -0.2269
      9 C          65.9706   92.8337   13.6058 C.ar    1  UNL1        0.1406
     10 N          67.0155   93.8950   13.7834 N.ar    1  UNL1       -0.3374
     11 C          67.8300   93.9425   15.0421 C.ar    1  UNL1        0.0735
     12 C          67.5994   92.9286   16.1232 C.ar    1  UNL1        0.0186
     13 C          66.5545   91.8673   15.9457 C.ar    1  UNL1        0.0046
     14 C          65.7400   91.8198   14.6869 C.ar    1  UNL1        0.0370
     15 H          67.1669   94.5605   13.0738 H       1  UNL1        0.1674
     16 C          64.3396   85.0867   15.1971 C.2     1  UNL1        0.2320
     17 O          65.6765   85.6553   14.8238 O.2     1  UNL1       -0.2744
     18 N          63.2221   86.0016   15.6022 N.am    1  UNL1       -0.2639
     19 H          62.3446   85.6284   15.8473 H       1  UNL1        0.1567
     20 C          64.1201   83.6032   15.1653 C.3     1  UNL1        0.1117
     21 C          63.3935   83.0238   11.3070 C.ar    1  UNL1        0.0681
     22 C          62.9992   81.5765   11.3070 C.ar    1  UNL1        0.0103
     23 C          62.9785   80.8048   12.5931 C.ar    1  UNL1        0.0004
     24 C          63.3521   81.4804   13.8793 C.ar    1  UNL1       -0.0037
     25 C          63.7465   82.9277   13.8792 C.ar    1  UNL1       -0.0124
     26 C          63.7672   83.6993   12.5931 C.ar    1  UNL1        0.0065
     27 N          63.4349   84.5672    8.7348 N.1     1  UNL1       -0.1908
     28 C          63.4142   83.7955   10.0209 C.1     1  UNL1        0.1004
@<TRIPOS>BOND
     1    27    28    3
     2    28    21    1
     3    21    22   ar
     4    22    23   ar
     5    23    24   ar
     6    24    25   ar
     7    25    20    1
     8    20    16    1
     9    16    17    2
    10    16    18   am
    11    18     1    1
    12     1     2   ar
    13     2     3   ar
    14     3     6    1
    15     6     7   ar
    16     7     8   ar
    17     8     9   ar
    18     9    10   ar
    19    10    11   ar
    20    11    12   ar
    21    12    13   ar
    22    13    14   ar
    23     3     4   ar
    24     4     5   ar
    25    25    26   ar
    26    26    21   ar
    27     5     1   ar
    28    14     6   ar
    29    14     9    1
    30    18    19    1
    31    10    15    1
@<TRIPOS>MOLECULE
*****
 28 31 0 0 0
SMALL
GASTEIGER

@<TRIPOS>ATOM
      1 C          63.5314   87.4000   15.8978 C.ar    1  UNL1        0.1655
      2 N          64.2161   88.1928   14.8242 N.ar    1  UNL1       -0.2239
      3 C          64.0765   89.6476   15.1616 C.ar    1  UNL1        0.0913
      4 C          63.3055   89.7540   16.4439 C.ar    1  UNL1        0.0573
      5 S          62.9687   88.3650   16.8989 S.2     1  UNL1       -0.0508
      6 C          64.6136   90.7946   14.3580 C.ar    1  UNL1        0.0403
      7 C          65.5656   91.8451   14.8479 C.ar    1  UNL1        0.1021
      8 N          65.8332   92.7923   13.7160 N.ar    1  UNL1       -0.2269
      9 C          65.0466   92.3272   12.5265 C.ar    1  UNL1        0.1406
     10 N          64.9194   92.8683   11.1333 N.ar    1  UNL1       -0.3374
     11 C          64.0384   92.1749   10.1370 C.ar    1  UNL1        0.0735
     12 C          63.2846   90.9402   10.5337 C.ar    1  UNL1        0.0186
     13 C          63.4118   90.3990   11.9269 C.ar    1  UNL1        0.0046
     14 C          64.2928   91.0925   12.9232 C.ar    1  UNL1        0.0370
     15 H          65.4142   93.6787   10.8729 H       1  UNL1        0.1674
     16 C          64.5225   85.0530   15.3889 C.2     1  UNL1        0.2320
     17 O          65.7210   85.6961   14.7566 O.2     1  UNL1       -0.2744
     18 N          63.4278   85.9049   15.9595 N.am    1  UNL1       -0.2639
     19 H          62.6411   85.4828   16.3746 H       1  UNL1        0.1567
     20 C          64.4188   83.5578   15.4507 C.3     1  UNL1        0.1117
     21 C          61.5976   81.3611   13.7287 C.ar    1  UNL1        0.0681
     22 C          62.0864   81.3326   12.3109 C.ar    1  UNL1        0.0103
     23 C          63.3527   82.0458   11.9396 C.ar    1  UNL1        0.0004
     24 C          64.1302   82.7876   12.9863 C.ar    1  UNL1       -0.0037
     25 C          63.6413   82.8161   14.4041 C.ar    1  UNL1       -0.0124
     26 C          62.3750   82.1028   14.7753 C.ar    1  UNL1        0.0065
     27 N          59.0650   79.9347   14.4712 N.1     1  UNL1       -0.1908
     28 C          60.3313   80.6479   14.0999 C.1     1  UNL1        0.1004
@<TRIPOS>BOND
     1    27    28    3
     2    28    21    1
     3    21    22   ar
     4    22    23   ar
     5    23    24   ar
     6    24    25   ar
     7    25    20    1
     8    20    16    1
     9    16    17    2
    10    16    18   am
    11    18     1    1
    12     1     2   ar
    13     2     3   ar
    14     3     6    1
    15     6     7   ar
    16     7     8   ar
    17     8     9   ar
    18     9    10   ar
    19    10    11   ar
    20    11    12   ar
    21    12    13   ar
    22    13    14   ar
    23     3     4   ar
    24     4     5   ar
    25    25    26   ar
    26    26    21   ar
    27     5     1   ar
    28    14     6   ar
    29    14     9    1
    30    18    19    1
    31    10    15    1
@<TRIPOS>MOLECULE
*****
 28 31 0 0 0
SMALL
GASTEIGER

@<TRIPOS>ATOM
      1 C          63.5487   87.3204   15.6560 C.ar    1  UNL1        0.1655
      2 N          64.1576   88.1295   14.5493 N.ar    1  UNL1       -0.2239
      3 C          64.0277   89.5797   14.9096 C.ar    1  UNL1        0.0913
      4 C          63.3385   89.6671   16.2390 C.ar    1  UNL1        0.0573
      5 S          63.0425   88.2708   16.7003 S.2     1  UNL1       -0.0508
      6 C          64.5035   90.7391   14.0853 C.ar    1  UNL1        0.0403
      7 C          64.0115   91.1092   12.7175 C.ar    1  UNL1        0.1021
      8 N          64.7587   92.3307   12.2709 N.ar    1  UNL1       -0.2269
      9 C          65.7126   92.7156   13.3627 C.ar    1  UNL1        0.1406
     10 N          66.7044   93.8346   13.4807 N.ar    1  UNL1       -0.3374
     11 C          67.5384   93.9700   14.7200 C.ar    1  UNL1        0.0735
     12 C          67.3807   92.9863   15.8414 C.ar    1  UNL1        0.0186
     13 C          66.3889   91.8672   15.7234 C.ar    1  UNL1        0.0046
     14 C          65.5549   91.7319   14.4841 C.ar    1  UNL1        0.0370
     15 H          66.8079   94.4803   12.7447 H       1  UNL1        0.1674
     16 C          64.6301   84.9887   15.2775 C.2     1  UNL1        0.2320
     17 O          65.8863   85.6499   14.7929 O.2     1  UNL1       -0.2744
     18 N          63.4614   85.8240   15.7090 N.am    1  UNL1       -0.2639
     19 H          62.6369   85.3900   16.0271 H       1  UNL1        0.1567
     20 C          64.5428   83.4922   15.3306 C.3     1  UNL1        0.1117
     21 C          61.6275   81.3566   13.6902 C.ar    1  UNL1        0.0681
     22 C          62.1034   81.2708   12.2703 C.ar    1  UNL1        0.0103
     23 C          63.3924   81.9256   11.8704 C.ar    1  UNL1        0.0004
     24 C          64.2055   82.6660   12.8905 C.ar    1  UNL1       -0.0037
     25 C          63.7296   82.7517   14.3105 C.ar    1  UNL1       -0.0124
     26 C          62.4406   82.0970   14.7103 C.ar    1  UNL1        0.0065
     27 N          59.0496   80.0471   14.4900 N.1     1  UNL1       -0.1908
     28 C          60.3386   80.7019   14.0901 C.1     1  UNL1        0.1004
@<TRIPOS>BOND
     1    27    28    3
     2    28    21    1
     3    21    22   ar
     4    22    23   ar
     5    23    24   ar
     6    24    25   ar
     7    25    20    1
     8    20    16    1
     9    16    17    2
    10    16    18   am
    11    18     1    1
    12     1     2   ar
    13     2     3   ar
    14     3     6    1
    15     6     7   ar
    16     7     8   ar
    17     8     9   ar
    18     9    10   ar
    19    10    11   ar
    20    11    12   ar
    21    12    13   ar
    22    13    14   ar
    23     3     4   ar
    24     4     5   ar
    25    25    26   ar
    26    26    21   ar
    27     5     1   ar
    28    14     6   ar
    29    14     9    1
    30    18    19    1
    31    10    15    1
