@<TRIPOS>MOLECULE
*****
 24 26 0 0 0
SMALL
GASTEIGER

@<TRIPOS>ATOM
      1 C          63.5295   85.9017   15.9454 C.3     1  UNL1        0.0838
      2 C          63.0651   87.0107   16.8424 C.3     1  UNL1        0.0437
      3 C          63.4702   88.3128   16.2175 C.ar    1  UNL1       -0.0247
      4 C          63.2805   89.7361   16.6512 C.ar    1  UNL1       -0.0045
      5 C          63.8056   90.8553   15.8017 C.ar    1  UNL1        0.0012
      6 C          64.5204   90.5511   14.5185 C.ar    1  UNL1        0.0173
      7 C          64.7101   89.1277   14.0849 C.ar    1  UNL1       -0.0030
      8 C          64.1850   88.0086   14.9344 C.ar    1  UNL1       -0.0246
      9 C          64.2216   86.5185   14.7662 C.3     1  UNL1        0.0438
     10 C          65.0456   91.6703   13.6690 C.ar    1  UNL1        0.0814
     11 C          64.7277   91.7125   12.2037 C.ar    1  UNL1        0.0200
     12 C          65.2528   92.8317   11.3542 C.ar    1  UNL1        0.0145
     13 C          66.0959   93.9087   11.9701 C.ar    1  UNL1        0.0768
     14 CL         66.6210   95.0279   11.1206 Cl      1  UNL1       -0.0806
     15 C          66.4137   93.8666   13.4354 C.ar    1  UNL1        0.1101
     16 N          65.8886   92.7474   14.2849 N.ar    1  UNL1       -0.2430
     17 N          63.3358   84.4338   16.1855 N.3     1  UNL1       -0.1841
     18 H          64.2318   84.0673   16.5069 H       1  UNL1        0.1484
     19 S          62.8804   83.5445   15.0667 S.O2    1  UNL1        0.0390
     20 O          64.0767   82.6649   15.2790 O.2     1  UNL1       -0.1576
     21 O          61.6841   84.4242   14.8545 O.2     1  UNL1       -0.1576
     22 C          61.6518   81.4059   14.2501 C.3     1  UNL1        0.0270
     23 C          62.4250   82.6552   13.9479 C.3     1  UNL1        0.1457
     24 C          62.7429   83.0152   12.5268 C.3     1  UNL1        0.0270
@<TRIPOS>BOND
     1    22    23    1
     2    23    24    1
     3    23    19    1
     4    19    20    2
     5    19    21    2
     6    19    17    1
     7    17     1    1
     8     1     2    1
     9     2     3    1
    10     3     4   ar
    11     4     5   ar
    12     5     6   ar
    13     6    10    1
    14    10    11   ar
    15    11    12   ar
    16    12    13   ar
    17    13    14    1
    18    13    15   ar
    19    15    16   ar
    20     6     7   ar
    21     7     8   ar
    22     8     9    1
    23     9     1    1
    24     8     3   ar
    25    16    10   ar
    26    17    18    1
@<TRIPOS>MOLECULE
*****
 24 26 0 0 0
SMALL
GASTEIGER

@<TRIPOS>ATOM
      1 C          63.9725   90.5930   13.0989 C.3     1  UNL1        0.0838
      2 C          63.1746   90.2643   11.8720 C.3     1  UNL1        0.0437
      3 C          62.9385   88.7831   11.8556 C.ar    1  UNL1       -0.0247
      4 C          62.2141   87.8928   10.8899 C.ar    1  UNL1       -0.0045
      5 C          62.1417   86.4158   11.1410 C.ar    1  UNL1        0.0012
      6 C          62.7937   85.8290   12.3578 C.ar    1  UNL1        0.0173
      7 C          63.5181   86.7193   13.3235 C.ar    1  UNL1       -0.0030
      8 C          63.5905   88.1963   13.0724 C.ar    1  UNL1       -0.0246
      9 C          64.2295   89.3149   13.8408 C.3     1  UNL1        0.0438
     10 C          62.7213   84.3519   12.6088 C.ar    1  UNL1        0.0814
     11 C          62.9382   83.3878   11.4804 C.ar    1  UNL1        0.0200
     12 C          62.8657   81.9107   11.7315 C.ar    1  UNL1        0.0145
     13 C          62.5764   81.3978   13.1110 C.ar    1  UNL1        0.0768
     14 CL         62.5039   79.9207   13.3621 Cl      1  UNL1       -0.0806
     15 C          62.3594   82.3619   14.2395 C.ar    1  UNL1        0.1101
     16 N          62.4319   83.8390   13.9884 N.ar    1  UNL1       -0.2430
     17 N          64.4326   91.9598   13.5115 N.3     1  UNL1       -0.1841
     18 H          64.4298   92.5376   12.6710 H       1  UNL1        0.1484
     19 S          65.7763   92.1366   14.1541 S.O2    1  UNL1        0.0390
     20 O          66.4354   91.9985   12.8138 O.2     1  UNL1       -0.1576
     21 O          65.1173   92.2747   15.4944 O.2     1  UNL1       -0.1576
     22 C          67.2169   92.8102   16.2087 C.3     1  UNL1        0.0270
     23 C          67.1202   92.3134   14.7967 C.3     1  UNL1        0.1457
     24 C          68.3674   91.9934   14.0271 C.3     1  UNL1        0.0270
@<TRIPOS>BOND
     1    22    23    1
     2    23    24    1
     3    23    19    1
     4    19    20    2
     5    19    21    2
     6    19    17    1
     7    17     1    1
     8     1     2    1
     9     2     3    1
    10     3     4   ar
    11     4     5   ar
    12     5     6   ar
    13     6    10    1
    14    10    11   ar
    15    11    12   ar
    16    12    13   ar
    17    13    14    1
    18    13    15   ar
    19    15    16   ar
    20     6     7   ar
    21     7     8   ar
    22     8     9    1
    23     9     1    1
    24     8     3   ar
    25    16    10   ar
    26    17    18    1
@<TRIPOS>MOLECULE
*****
 24 26 0 0 0
SMALL
GASTEIGER

@<TRIPOS>ATOM
      1 C          63.5577   85.4255   15.8760 C.3     1  UNL1        0.0838
      2 C          63.0448   86.4803   16.8110 C.3     1  UNL1        0.0437
      3 C          63.4291   87.8194   16.2550 C.ar    1  UNL1       -0.0247
      4 C          63.1926   89.2162   16.7478 C.ar    1  UNL1       -0.0045
      5 C          63.7067   90.3858   15.9620 C.ar    1  UNL1        0.0012
      6 C          64.4572   90.1587   14.6832 C.ar    1  UNL1        0.0173
      7 C          64.6937   88.7618   14.1904 C.ar    1  UNL1       -0.0030
      8 C          64.1796   87.5922   14.9763 C.ar    1  UNL1       -0.0246
      9 C          64.2591   86.1127   14.7421 C.3     1  UNL1        0.0438
     10 C          64.9712   91.3284   13.8974 C.ar    1  UNL1        0.0814
     11 C          65.9072   92.3097   14.5385 C.ar    1  UNL1        0.0200
     12 C          66.4212   93.4794   13.7526 C.ar    1  UNL1        0.0145
     13 C          65.9993   93.6678   12.3256 C.ar    1  UNL1        0.0768
     14 CL         66.5133   94.8374   11.5397 Cl      1  UNL1       -0.0806
     15 C          65.0633   92.6864   11.6844 C.ar    1  UNL1        0.1101
     16 N          64.5493   91.5168   12.4703 N.ar    1  UNL1       -0.2430
     17 N          63.3975   83.9437   16.0452 N.3     1  UNL1       -0.1841
     18 H          64.3221   83.5701   16.2592 H       1  UNL1        0.1484
     19 S          62.8451   83.1161   14.9228 S.O2    1  UNL1        0.0390
     20 O          61.6196   83.9802   14.8887 O.2     1  UNL1       -0.1576
     21 O          64.0707   82.2520   14.9569 O.2     1  UNL1       -0.1576
     22 C          62.7213   82.5580   12.3884 C.3     1  UNL1        0.0270
     23 C          62.2927   82.2884   13.8003 C.3     1  UNL1        0.1457
     24 C          61.3117   81.1912   14.0898 C.3     1  UNL1        0.0270
@<TRIPOS>BOND
     1    22    23    1
     2    23    24    1
     3    23    19    1
     4    19    20    2
     5    19    21    2
     6    19    17    1
     7    17     1    1
     8     1     2    1
     9     2     3    1
    10     3     4   ar
    11     4     5   ar
    12     5     6   ar
    13     6    10    1
    14    10    11   ar
    15    11    12   ar
    16    12    13   ar
    17    13    14    1
    18    13    15   ar
    19    15    16   ar
    20     6     7   ar
    21     7     8   ar
    22     8     9    1
    23     9     1    1
    24     8     3   ar
    25    16    10   ar
    26    17    18    1
@<TRIPOS>MOLECULE
*****
 24 26 0 0 0
SMALL
GASTEIGER

@<TRIPOS>ATOM
      1 C          63.8050   90.2090   13.1187 C.3     1  UNL1        0.0838
      2 C          64.4367   89.6127   14.3416 C.3     1  UNL1        0.0437
      3 C          64.2770   88.1231   14.2664 C.ar    1  UNL1       -0.0247
      4 C          64.7023   87.0202   15.1899 C.ar    1  UNL1       -0.0045
      5 C          64.3973   85.5930   14.8438 C.ar    1  UNL1        0.0012
      6 C          63.6670   85.2686   13.5744 C.ar    1  UNL1        0.0173
      7 C          63.2417   86.3715   12.6510 C.ar    1  UNL1       -0.0030
      8 C          63.5467   87.7987   12.9970 C.ar    1  UNL1       -0.0246
      9 C          63.2550   89.0879   12.2877 C.3     1  UNL1        0.0438
     10 C          63.3620   83.8412   13.2284 C.ar    1  UNL1        0.0814
     11 C          63.7565   83.2934   11.8890 C.ar    1  UNL1        0.0200
     12 C          63.4514   81.8660   11.5430 C.ar    1  UNL1        0.0145
     13 C          62.7519   80.9865   12.5365 C.ar    1  UNL1        0.0768
     14 CL         62.4469   79.5592   12.1906 Cl      1  UNL1       -0.0806
     15 C          62.3574   81.5344   13.8761 C.ar    1  UNL1        0.1101
     16 N          62.6624   82.9617   14.2220 N.ar    1  UNL1       -0.2430
     17 N          63.7356   91.6698   12.7854 N.3     1  UNL1       -0.1841
     18 H          62.9557   91.7875   12.1386 H       1  UNL1        0.1484
     19 S          64.9180   92.3550   12.1670 S.O2    1  UNL1        0.0390
     20 O          65.4304   92.7034   13.5330 O.2     1  UNL1       -0.1576
     21 O          64.4056   92.0066   10.8010 O.2     1  UNL1       -0.1576
     22 C          67.2937   92.2378   11.1218 C.3     1  UNL1        0.0270
     23 C          66.1005   93.0402   11.5487 C.3     1  UNL1        0.1457
     24 C          66.0897   94.5279   11.3573 C.3     1  UNL1        0.0270
@<TRIPOS>BOND
     1    22    23    1
     2    23    24    1
     3    23    19    1
     4    19    20    2
     5    19    21    2
     6    19    17    1
     7    17     1    1
     8     1     2    1
     9     2     3    1
    10     3     4   ar
    11     4     5   ar
    12     5     6   ar
    13     6    10    1
    14    10    11   ar
    15    11    12   ar
    16    12    13   ar
    17    13    14    1
    18    13    15   ar
    19    15    16   ar
    20     6     7   ar
    21     7     8   ar
    22     8     9    1
    23     9     1    1
    24     8     3   ar
    25    16    10   ar
    26    17    18    1
@<TRIPOS>MOLECULE
*****
 24 26 0 0 0
SMALL
GASTEIGER

@<TRIPOS>ATOM
      1 C          61.4583   89.6086   11.0481 C.3     1  UNL1        0.0838
      2 C          62.1676   90.5627   10.1335 C.3     1  UNL1        0.0437
      3 C          63.3502   91.1185   10.8700 C.ar    1  UNL1       -0.0247
      4 C          64.4102   92.1016   10.4703 C.ar    1  UNL1       -0.0045
      5 C          65.4918   92.4742   11.4405 C.ar    1  UNL1        0.0012
      6 C          65.5134   91.8635   12.8104 C.ar    1  UNL1        0.0173
      7 C          64.4534   90.8804   13.2101 C.ar    1  UNL1       -0.0030
      8 C          63.3718   90.5079   12.2399 C.ar    1  UNL1       -0.0246
      9 C          62.2026   89.5747   12.3500 C.3     1  UNL1        0.0438
     10 C          66.5951   92.2361   13.7806 C.ar    1  UNL1        0.0814
     11 C          66.2366   92.7086   15.1584 C.ar    1  UNL1        0.0200
     12 C          67.3183   93.0812   16.1286 C.ar    1  UNL1        0.0145
     13 C          68.7584   92.9813   15.7209 C.ar    1  UNL1        0.0768
     14 CL         69.8401   93.3538   16.6911 Cl      1  UNL1       -0.0806
     15 C          69.1168   92.5088   14.3431 C.ar    1  UNL1        0.1101
     16 N          68.0352   92.1363   13.3730 N.ar    1  UNL1       -0.2430
     17 N          60.2218   88.8259   10.7188 N.3     1  UNL1       -0.1841
     18 H          59.9427   88.3431   11.5728 H       1  UNL1        0.1484
     19 S          60.2546   87.7951    9.6296 S.O2    1  UNL1        0.0390
     20 O          60.7601   86.7771   10.6084 O.2     1  UNL1       -0.1576
     21 O          59.7491   88.8131    8.6509 O.2     1  UNL1       -0.1576
     22 C          59.0901   86.5660    7.6590 C.3     1  UNL1        0.0270
     23 C          60.2874   86.7642    8.5405 C.3     1  UNL1        0.1457
     24 C          61.5177   85.9314    8.3329 C.3     1  UNL1        0.0270
@<TRIPOS>BOND
     1    22    23    1
     2    23    24    1
     3    23    19    1
     4    19    20    2
     5    19    21    2
     6    19    17    1
     7    17     1    1
     8     1     2    1
     9     2     3    1
    10     3     4   ar
    11     4     5   ar
    12     5     6   ar
    13     6    10    1
    14    10    11   ar
    15    11    12   ar
    16    12    13   ar
    17    13    14    1
    18    13    15   ar
    19    15    16   ar
    20     6     7   ar
    21     7     8   ar
    22     8     9    1
    23     9     1    1
    24     8     3   ar
    25    16    10   ar
    26    17    18    1
@<TRIPOS>MOLECULE
*****
 24 26 0 0 0
SMALL
GASTEIGER

@<TRIPOS>ATOM
      1 C          63.8405   90.3325   13.2754 C.3     1  UNL1        0.0838
      2 C          64.3030   89.7125   14.5606 C.3     1  UNL1        0.0437
      3 C          64.1647   88.2243   14.4335 C.ar    1  UNL1       -0.0247
      4 C          64.4670   87.1034   15.3834 C.ar    1  UNL1       -0.0045
      5 C          64.2214   85.6828   14.9694 C.ar    1  UNL1        0.0012
      6 C          63.6734   85.3830   13.6057 C.ar    1  UNL1        0.0173
      7 C          63.3711   86.5038   12.6558 C.ar    1  UNL1       -0.0030
      8 C          63.6168   87.9245   13.0697 C.ar    1  UNL1       -0.0246
      9 C          63.4164   89.2274   12.3540 C.3     1  UNL1        0.0438
     10 C          63.4278   83.9623   13.1918 C.ar    1  UNL1        0.0814
     11 C          63.6388   82.8479   14.1734 C.ar    1  UNL1        0.0200
     12 C          63.3931   81.4272   13.7595 C.ar    1  UNL1        0.0145
     13 C          62.9365   81.1209   12.3639 C.ar    1  UNL1        0.0768
     14 CL         62.6908   79.7002   11.9500 Cl      1  UNL1       -0.0806
     15 C          62.7254   82.2353   11.3823 C.ar    1  UNL1        0.1101
     16 N          62.9711   83.6559   11.7962 N.ar    1  UNL1       -0.2430
     17 N          63.8078   91.7998   12.9660 N.3     1  UNL1       -0.1841
     18 H          62.9552   91.9693   12.4323 H       1  UNL1        0.1484
     19 S          64.9318   92.4296   12.1980 S.O2    1  UNL1        0.0390
     20 O          64.2546   92.0672   10.9096 O.2     1  UNL1       -0.1576
     21 O          65.6091   92.7920   13.4864 O.2     1  UNL1       -0.1576
     22 C          65.9861   94.5092   11.0518 C.3     1  UNL1        0.0270
     23 C          66.0559   93.0594   11.4299 C.3     1  UNL1        0.1457
     24 C          67.2498   92.2393   11.0400 C.3     1  UNL1        0.0270
@<TRIPOS>BOND
     1    22    23    1
     2    23    24    1
     3    23    19    1
     4    19    20    2
     5    19    21    2
     6    19    17    1
     7    17     1    1
     8     1     2    1
     9     2     3    1
    10     3     4   ar
    11     4     5   ar
    12     5     6   ar
    13     6    10    1
    14    10    11   ar
    15    11    12   ar
    16    12    13   ar
    17    13    14    1
    18    13    15   ar
    19    15    16   ar
    20     6     7   ar
    21     7     8   ar
    22     8     9    1
    23     9     1    1
    24     8     3   ar
    25    16    10   ar
    26    17    18    1
@<TRIPOS>MOLECULE
*****
 24 26 0 0 0
SMALL
GASTEIGER

@<TRIPOS>ATOM
      1 C          61.7877   88.6773   11.2964 C.3     1  UNL1        0.0838
      2 C          62.4594   89.1102   12.5658 C.3     1  UNL1        0.0437
      3 C          63.3748   90.2528   12.2396 C.ar    1  UNL1       -0.0247
      4 C          64.2911   91.0797   13.0920 C.ar    1  UNL1       -0.0045
      5 C          65.1014   92.1799   12.4733 C.ar    1  UNL1        0.0012
      6 C          64.9955   92.4532   11.0022 C.ar    1  UNL1        0.0173
      7 C          64.0792   91.6264   10.1498 C.ar    1  UNL1       -0.0030
      8 C          63.2689   90.5262   10.7685 C.ar    1  UNL1       -0.0246
      9 C          62.2880   89.5524   10.1856 C.3     1  UNL1        0.0438
     10 C          65.8059   93.5535   10.3835 C.ar    1  UNL1        0.0814
     11 C          67.1086   93.2379    9.7102 C.ar    1  UNL1        0.0200
     12 C          67.9190   94.3382    9.0915 C.ar    1  UNL1        0.0145
     13 C          67.4267   95.7541    9.1462 C.ar    1  UNL1        0.0768
     14 CL         68.2370   96.8543    8.5275 Cl      1  UNL1       -0.0806
     15 C          66.1239   96.0696    9.8196 C.ar    1  UNL1        0.1101
     16 N          65.3136   94.9694   10.4382 N.ar    1  UNL1       -0.2430
     17 N          60.7908   87.5646   11.1615 N.3     1  UNL1       -0.1841
     18 H          61.1211   86.8003   11.7506 H       1  UNL1        0.1484
     19 S          60.5007   86.9771    9.8122 S.O2    1  UNL1        0.0390
     20 O          59.4207   87.9964    9.6007 O.2     1  UNL1       -0.1576
     21 O          61.5806   85.9579   10.0238 O.2     1  UNL1       -0.1576
     22 C          58.8910   86.6510    7.7991 C.3     1  UNL1        0.0270
     23 C          60.2105   86.3896    8.4629 C.3     1  UNL1        0.1457
     24 C          61.2398   85.5407    7.7774 C.3     1  UNL1        0.0270
@<TRIPOS>BOND
     1    22    23    1
     2    23    24    1
     3    23    19    1
     4    19    20    2
     5    19    21    2
     6    19    17    1
     7    17     1    1
     8     1     2    1
     9     2     3    1
    10     3     4   ar
    11     4     5   ar
    12     5     6   ar
    13     6    10    1
    14    10    11   ar
    15    11    12   ar
    16    12    13   ar
    17    13    14    1
    18    13    15   ar
    19    15    16   ar
    20     6     7   ar
    21     7     8   ar
    22     8     9    1
    23     9     1    1
    24     8     3   ar
    25    16    10   ar
    26    17    18    1
@<TRIPOS>MOLECULE
*****
 24 26 0 0 0
SMALL
GASTEIGER

@<TRIPOS>ATOM
      1 C          61.7706   89.8712   10.1983 C.3     1  UNL1        0.0838
      2 C          61.8981   88.9890   11.4047 C.3     1  UNL1        0.0437
      3 C          62.9626   89.5657   12.2903 C.ar    1  UNL1       -0.0247
      4 C          63.5175   89.1229   13.6116 C.ar    1  UNL1       -0.0045
      5 C          64.6027   89.9189   14.2739 C.ar    1  UNL1        0.0012
      6 C          65.1331   91.1575   13.6148 C.ar    1  UNL1        0.0173
      7 C          64.5783   91.6003   12.2935 C.ar    1  UNL1       -0.0030
      8 C          63.4930   90.8044   11.6312 C.ar    1  UNL1       -0.0246
      9 C          62.7563   90.9932   10.3383 C.3     1  UNL1        0.0438
     10 C          66.2184   91.9535   14.2772 C.ar    1  UNL1        0.0814
     11 C          67.2584   91.2593   15.1057 C.ar    1  UNL1        0.0200
     12 C          68.3438   92.0553   15.7681 C.ar    1  UNL1        0.0145
     13 C          68.3890   93.5453   15.6019 C.ar    1  UNL1        0.0768
     14 CL         69.4742   94.3413   16.2642 Cl      1  UNL1       -0.0806
     15 C          67.3489   94.2395   14.7733 C.ar    1  UNL1        0.1101
     16 N          66.2637   93.4435   14.1110 N.ar    1  UNL1       -0.2430
     17 N          60.8236   89.6673    9.0530 N.3     1  UNL1       -0.1841
     18 H          59.9344   90.0843    9.3284 H       1  UNL1        0.1484
     19 S          60.5200   88.2806    8.5686 S.O2    1  UNL1        0.0390
     20 O          59.2965   88.7930    7.8684 O.2     1  UNL1       -0.1576
     21 O          61.7436   87.7681    9.2688 O.2     1  UNL1       -0.1576
     22 C          61.3173   85.8813    7.9703 C.3     1  UNL1        0.0270
     23 C          60.2164   86.8937    8.0842 C.3     1  UNL1        0.1457
     24 C          58.8119   86.5194    7.7137 C.3     1  UNL1        0.0270
@<TRIPOS>BOND
     1    22    23    1
     2    23    24    1
     3    23    19    1
     4    19    20    2
     5    19    21    2
     6    19    17    1
     7    17     1    1
     8     1     2    1
     9     2     3    1
    10     3     4   ar
    11     4     5   ar
    12     5     6   ar
    13     6    10    1
    14    10    11   ar
    15    11    12   ar
    16    12    13   ar
    17    13    14    1
    18    13    15   ar
    19    15    16   ar
    20     6     7   ar
    21     7     8   ar
    22     8     9    1
    23     9     1    1
    24     8     3   ar
    25    16    10   ar
    26    17    18    1
@<TRIPOS>MOLECULE
*****
 24 26 0 0 0
SMALL
GASTEIGER

@<TRIPOS>ATOM
      1 C          63.8656   89.0615   13.7262 C.3     1  UNL1        0.0838
      2 C          64.4557   88.2196   14.8184 C.3     1  UNL1        0.0437
      3 C          64.3041   86.7795   14.4269 C.ar    1  UNL1       -0.0247
      4 C          64.7004   85.5058   15.1129 C.ar    1  UNL1       -0.0045
      5 C          64.4129   84.1841   14.4646 C.ar    1  UNL1        0.0012
      6 C          63.7292   84.1360   13.1304 C.ar    1  UNL1        0.0173
      7 C          63.3330   85.4097   12.4444 C.ar    1  UNL1       -0.0030
      8 C          63.6204   86.7314   13.0926 C.ar    1  UNL1       -0.0246
      9 C          63.3494   88.1418   12.6596 C.3     1  UNL1        0.0438
     10 C          63.4418   82.8141   12.4821 C.ar    1  UNL1        0.0814
     11 C          63.7252   82.6172   11.0224 C.ar    1  UNL1        0.0200
     12 C          63.4378   81.2954   10.3742 C.ar    1  UNL1        0.0145
     13 C          62.8669   80.1705   11.1857 C.ar    1  UNL1        0.0768
     14 CL         62.5794   78.8487   10.5376 Cl      1  UNL1       -0.0806
     15 C          62.5834   80.3674   12.6455 C.ar    1  UNL1        0.1101
     16 N          62.8709   81.6892   13.2937 N.ar    1  UNL1       -0.2430
     17 N          63.8028   90.5600   13.7044 N.3     1  UNL1       -0.1841
     18 H          64.0688   90.8522   12.7640 H       1  UNL1        0.1484
     19 S          64.6390   91.3597   14.6590 S.O2    1  UNL1        0.0390
     20 O          63.5726   91.2257   15.7053 O.2     1  UNL1       -0.1576
     21 O          65.7054   91.4937   13.6127 O.2     1  UNL1       -0.1576
     22 C          64.8858   92.6380   16.9074 C.3     1  UNL1        0.0270
     23 C          65.4751   92.1594   15.6137 C.3     1  UNL1        0.1457
     24 C          66.9006   92.4805   15.2747 C.3     1  UNL1        0.0270
@<TRIPOS>BOND
     1    22    23    1
     2    23    24    1
     3    23    19    1
     4    19    20    2
     5    19    21    2
     6    19    17    1
     7    17     1    1
     8     1     2    1
     9     2     3    1
    10     3     4   ar
    11     4     5   ar
    12     5     6   ar
    13     6    10    1
    14    10    11   ar
    15    11    12   ar
    16    12    13   ar
    17    13    14    1
    18    13    15   ar
    19    15    16   ar
    20     6     7   ar
    21     7     8   ar
    22     8     9    1
    23     9     1    1
    24     8     3   ar
    25    16    10   ar
    26    17    18    1
