@<TRIPOS>MOLECULE
*****
 32 36 0 0 0
SMALL
GASTEIGER

@<TRIPOS>ATOM
      1 O          62.2274   88.7743   16.5488 O.2     1  UNL1       -0.2729
      2 C          63.5219   89.3450   16.0501 C.2     1  UNL1        0.2474
      3 N          64.4435   88.5010   15.2207 N.am    1  UNL1       -0.2665
      4 H          65.2931   88.8756   14.8933 H       1  UNL1        0.1564
      5 C          64.0708   87.0862   14.8899 C.ar    1  UNL1        0.1560
      6 C          64.1738   86.0187   15.9387 C.ar    1  UNL1        0.0379
      7 C          63.8011   84.6039   15.6079 C.ar    1  UNL1        0.0239
      8 C          63.3254   84.2566   14.2283 C.ar    1  UNL1        0.1045
      9 N          63.2225   85.3241   13.1796 N.ar    1  UNL1       -0.1467
     10 N          63.5952   86.7389   13.5104 N.ar    1  UNL1       -0.1328
     11 C          62.9527   82.8418   13.8975 C.ar    1  UNL1        0.0408
     12 C          63.9023   81.9779   13.1216 C.ar    1  UNL1        0.1005
     13 N          63.5295   80.5631   12.7908 N.ar    1  UNL1       -0.2399
     14 C          62.2072   80.0122   13.2360 C.ar    1  UNL1        0.1284
     15 C          61.2578   80.8761   14.0119 C.ar    1  UNL1        0.1593
     16 F          59.9355   80.3252   14.4571 F       1  UNL1       -0.2025
     17 C          61.6305   82.2909   14.3427 C.ar    1  UNL1        0.0344
     18 C          63.8946   90.7598   16.3809 C.3     1  UNL1        0.1775
     19 N          64.7825   91.5375   15.4552 N.pl3   1  UNL1       -0.2964
     20 C          65.9217   92.3416   16.0080 C.3     1  UNL1        0.0917
     21 C          66.8095   93.1192   15.0822 C.3     1  UNL1        0.0263
     22 C          66.5581   93.0928   13.6037 C.3     1  UNL1        0.0342
     23 C          65.4188   92.2888   13.0509 C.2     1  UNL1        0.0496
     24 C          64.5310   91.5112   13.9766 C.2     1  UNL1        0.1032
     25 C          63.4930   90.8148   13.1473 C.2     1  UNL1        0.2682
     26 O          62.4005   89.9271   13.6653 O.2     1  UNL1       -0.2681
     27 N          63.7393   91.1622   11.7090 N.am    1  UNL1       -0.2238
     28 C          64.9295   92.0731   11.6494 C.2     1  UNL1        0.2523
     29 O          65.5258   92.6646   10.4066 O.2     1  UNL1       -0.2698
     30 C          62.9364   90.6827   10.5362 C.3     1  UNL1        0.0831
     31 C          62.3724   90.9152    9.1658 C.3     1  UNL1        0.0220
     32 C          62.1097   89.6199    9.8751 C.3     1  UNL1        0.0220
@<TRIPOS>BOND
     1     1     2    2
     2     2    18    1
     3    18    19    1
     4    19    20    1
     5    20    21    1
     6    21    22    1
     7    22    23    1
     8    23    24    2
     9    24    25    1
    10    25    26    2
    11    25    27   am
    12    27    30    1
    13    30    31    1
    14    31    32    1
    15    27    28   am
    16    28    29    2
    17     2     3   am
    18     3     5    1
    19     5     6   ar
    20     6     7   ar
    21     7     8   ar
    22     8    11    1
    23    11    12   ar
    24    12    13   ar
    25    13    14   ar
    26    14    15   ar
    27    15    16    1
    28    15    17   ar
    29     8     9   ar
    30     9    10   ar
    31    24    19    1
    32    32    30    1
    33    10     5   ar
    34    28    23    1
    35    17    11   ar
    36     3     4    1
@<TRIPOS>MOLECULE
*****
 32 36 0 0 0
SMALL
GASTEIGER

@<TRIPOS>ATOM
      1 O          60.2446   89.7333   13.0954 O.2     1  UNL1       -0.2729
      2 C          60.6008   88.9786   11.8489 C.2     1  UNL1        0.2474
      3 N          62.0229   88.9452   11.3730 N.am    1  UNL1       -0.2665
      4 H          62.2567   88.4499   10.5549 H       1  UNL1        0.1564
      5 C          63.0888   89.6665   12.1434 C.ar    1  UNL1        0.1560
      6 C          63.6154   90.9799   11.6456 C.ar    1  UNL1        0.0379
      7 C          64.6813   91.7011   12.4160 C.ar    1  UNL1        0.0239
      8 C          65.2207   91.1090   13.6843 C.ar    1  UNL1        0.1045
      9 N          64.6941   89.7957   14.1821 N.ar    1  UNL1       -0.1467
     10 N          63.6282   89.0744   13.4117 N.ar    1  UNL1       -0.1328
     11 C          66.2866   91.8302   14.4548 C.ar    1  UNL1        0.0408
     12 C          65.9393   92.5431   15.7281 C.ar    1  UNL1        0.1005
     13 N          67.0052   93.2643   16.4986 N.ar    1  UNL1       -0.2399
     14 C          68.4184   93.2728   15.9957 C.ar    1  UNL1        0.1284
     15 C          68.7656   92.5600   14.7224 C.ar    1  UNL1        0.1593
     16 F          70.1789   92.5684   14.2195 F       1  UNL1       -0.2025
     17 C          67.6997   91.8387   13.9520 C.ar    1  UNL1        0.0344
     18 C          59.5349   88.2574   11.0785 C.3     1  UNL1        0.1775
     19 N          59.8360   87.7089    9.7151 N.pl3   1  UNL1       -0.2964
     20 C          59.1260   88.2568    8.5128 C.3     1  UNL1        0.0917
     21 C          59.4271   87.7083    7.1495 C.3     1  UNL1        0.0263
     22 C          60.4383   86.6121    6.9886 C.3     1  UNL1        0.0342
     23 C          61.1483   86.0643    8.1910 C.2     1  UNL1        0.0496
     24 C          60.8471   86.6127    9.5542 C.2     1  UNL1        0.1032
     25 C          61.6992   85.8794   10.5475 C.2     1  UNL1        0.2682
     26 O          61.7198   86.1077   12.0299 O.2     1  UNL1       -0.2681
     27 N          62.5268   84.8778    9.7980 N.am    1  UNL1       -0.2238
     28 C          62.1864   84.9921    8.3416 C.2     1  UNL1        0.2523
     29 O          62.7798   84.1772    7.2309 O.2     1  UNL1       -0.2698
     30 C          63.5206   83.9286   10.3993 C.3     1  UNL1        0.0831
     31 C          64.2501   83.3989   11.5982 C.3     1  UNL1        0.0220
     32 C          64.5122   82.8142   10.2420 C.3     1  UNL1        0.0220
@<TRIPOS>BOND
     1     1     2    2
     2     2    18    1
     3    18    19    1
     4    19    20    1
     5    20    21    1
     6    21    22    1
     7    22    23    1
     8    23    24    2
     9    24    25    1
    10    25    26    2
    11    25    27   am
    12    27    30    1
    13    30    31    1
    14    31    32    1
    15    27    28   am
    16    28    29    2
    17     2     3   am
    18     3     5    1
    19     5     6   ar
    20     6     7   ar
    21     7     8   ar
    22     8    11    1
    23    11    12   ar
    24    12    13   ar
    25    13    14   ar
    26    14    15   ar
    27    15    16    1
    28    15    17   ar
    29     8     9   ar
    30     9    10   ar
    31    24    19    1
    32    32    30    1
    33    10     5   ar
    34    28    23    1
    35    17    11   ar
    36     3     4    1
@<TRIPOS>MOLECULE
*****
 32 36 0 0 0
SMALL
GASTEIGER

@<TRIPOS>ATOM
      1 O          60.9800   88.0399   11.5001 O.2     1  UNL1       -0.2729
      2 C          62.1977   88.6171   12.1591 C.2     1  UNL1        0.2474
      3 N          63.2947   87.7106   12.6332 N.am    1  UNL1       -0.2665
      4 H          64.0939   88.0894   13.0657 H       1  UNL1        0.1564
      5 C          63.1742   86.2270   12.4482 C.ar    1  UNL1        0.1560
      6 C          62.7841   85.6669   11.1124 C.ar    1  UNL1        0.0379
      7 C          62.6635   84.1832   10.9275 C.ar    1  UNL1        0.0239
      8 C          62.9331   83.2596   12.0783 C.ar    1  UNL1        0.1045
      9 N          63.3231   83.8197   13.4140 N.ar    1  UNL1       -0.1467
     10 N          63.4437   85.3034   13.5990 N.ar    1  UNL1       -0.1328
     11 C          62.8125   81.7760   11.8934 C.ar    1  UNL1        0.0408
     12 C          62.4327   80.9040   13.0534 C.ar    1  UNL1        0.1005
     13 N          62.3122   79.4203   12.8684 N.ar    1  UNL1       -0.2399
     14 C          62.5714   78.8086   11.5235 C.ar    1  UNL1        0.1284
     15 C          62.9512   79.6806   10.3637 C.ar    1  UNL1        0.1593
     16 F          63.2105   79.0689    9.0188 F       1  UNL1       -0.2025
     17 C          63.0718   81.1643   10.5486 C.ar    1  UNL1        0.0344
     18 C          62.3182   90.1008   12.3441 C.3     1  UNL1        0.1775
     19 N          63.3062   90.6563   13.3266 N.pl3   1  UNL1       -0.2964
     20 C          63.1680   90.3441   14.7872 C.3     1  UNL1        0.0917
     21 C          64.1560   90.8996   15.7696 C.3     1  UNL1        0.0263
     22 C          65.2822   91.7673   15.2915 C.3     1  UNL1        0.0342
     23 C          65.4205   92.0795   13.8309 C.2     1  UNL1        0.0496
     24 C          64.4325   91.5240   12.8485 C.2     1  UNL1        0.1032
     25 C          64.8215   92.0002   11.4802 C.2     1  UNL1        0.2682
     26 O          64.1075   91.6824   10.2000 O.2     1  UNL1       -0.2681
     27 N          66.0500   92.8500   11.6171 N.am    1  UNL1       -0.2238
     28 C          66.4201   92.8990   13.0699 C.2     1  UNL1        0.2523
     29 O          67.5854   93.6378   13.6584 O.2     1  UNL1       -0.2698
     30 C          66.7801   93.5312   10.4978 C.3     1  UNL1        0.0831
     31 C          67.7758   93.4828    9.3770 C.3     1  UNL1        0.0220
     32 C          67.0490   94.7595    9.6799 C.3     1  UNL1        0.0220
@<TRIPOS>BOND
     1     1     2    2
     2     2    18    1
     3    18    19    1
     4    19    20    1
     5    20    21    1
     6    21    22    1
     7    22    23    1
     8    23    24    2
     9    24    25    1
    10    25    26    2
    11    25    27   am
    12    27    30    1
    13    30    31    1
    14    31    32    1
    15    27    28   am
    16    28    29    2
    17     2     3   am
    18     3     5    1
    19     5     6   ar
    20     6     7   ar
    21     7     8   ar
    22     8    11    1
    23    11    12   ar
    24    12    13   ar
    25    13    14   ar
    26    14    15   ar
    27    15    16    1
    28    15    17   ar
    29     8     9   ar
    30     9    10   ar
    31    24    19    1
    32    32    30    1
    33    10     5   ar
    34    28    23    1
    35    17    11   ar
    36     3     4    1
@<TRIPOS>MOLECULE
*****
 32 36 0 0 0
SMALL
GASTEIGER

@<TRIPOS>ATOM
      1 O          65.4503   88.7007   14.4880 O.2     1  UNL1       -0.2729
      2 C          63.9656   88.5471   14.3387 C.2     1  UNL1        0.2474
      3 N          63.1830   89.5544   13.5495 N.am    1  UNL1       -0.2665
      4 H          62.2086   89.4537   13.4515 H       1  UNL1        0.1564
      5 C          63.8851   90.7154   12.9096 C.ar    1  UNL1        0.1560
      6 C          63.7719   90.9375   11.4304 C.ar    1  UNL1        0.0379
      7 C          64.4739   92.0985   10.7906 C.ar    1  UNL1        0.0239
      8 C          65.2891   93.0372   11.6299 C.ar    1  UNL1        0.1045
      9 N          65.4022   92.8150   13.1090 N.ar    1  UNL1       -0.1467
     10 N          64.7002   91.6541   13.7488 N.ar    1  UNL1       -0.1328
     11 C          65.9911   94.1981   10.9900 C.ar    1  UNL1        0.0408
     12 C          66.0043   95.5346   11.6711 C.ar    1  UNL1        0.1005
     13 N          66.7063   96.6955   11.0312 N.ar    1  UNL1       -0.2399
     14 C          67.3952   96.5199    9.7102 C.ar    1  UNL1        0.1284
     15 C          67.3819   95.1835    9.0293 C.ar    1  UNL1        0.1593
     16 F          68.0707   95.0080    7.7083 F       1  UNL1       -0.2025
     17 C          66.6799   94.0226    9.6691 C.ar    1  UNL1        0.0344
     18 C          63.2636   87.3862   14.9785 C.3     1  UNL1        0.1775
     19 N          63.6172   85.9838   14.5804 N.pl3   1  UNL1       -0.2964
     20 C          64.2238   85.0494   15.5849 C.3     1  UNL1        0.0917
     21 C          64.5774   83.6472   15.1867 C.3     1  UNL1        0.0263
     22 C          64.3245   83.1793   13.7842 C.3     1  UNL1        0.0342
     23 C          63.7179   84.1137   12.7798 C.2     1  UNL1        0.0496
     24 C          63.3643   85.5160   13.1779 C.2     1  UNL1        0.1032
     25 C          62.7830   86.2056   11.9792 C.2     1  UNL1        0.2682
     26 O          62.2934   87.6225   11.9285 O.2     1  UNL1       -0.2681
     27 N          62.7775   85.2295   10.8403 N.am    1  UNL1       -0.2238
     28 C          63.3552   83.9366   11.3351 C.2     1  UNL1        0.2523
     29 O          63.5382   82.6862   10.5271 O.2     1  UNL1       -0.2698
     30 C          62.2812   85.4988    9.4506 C.3     1  UNL1        0.0831
     31 C          61.2637   86.1031    8.5289 C.3     1  UNL1        0.0220
     32 C          62.4392   85.3611    7.9653 C.3     1  UNL1        0.0220
@<TRIPOS>BOND
     1     1     2    2
     2     2    18    1
     3    18    19    1
     4    19    20    1
     5    20    21    1
     6    21    22    1
     7    22    23    1
     8    23    24    2
     9    24    25    1
    10    25    26    2
    11    25    27   am
    12    27    30    1
    13    30    31    1
    14    31    32    1
    15    27    28   am
    16    28    29    2
    17     2     3   am
    18     3     5    1
    19     5     6   ar
    20     6     7   ar
    21     7     8   ar
    22     8    11    1
    23    11    12   ar
    24    12    13   ar
    25    13    14   ar
    26    14    15   ar
    27    15    16    1
    28    15    17   ar
    29     8     9   ar
    30     9    10   ar
    31    24    19    1
    32    32    30    1
    33    10     5   ar
    34    28    23    1
    35    17    11   ar
    36     3     4    1
@<TRIPOS>MOLECULE
*****
 32 36 0 0 0
SMALL
GASTEIGER

@<TRIPOS>ATOM
      1 O          61.8427   87.8203   11.8669 O.2     1  UNL1       -0.2729
      2 C          62.8420   88.1956   12.9207 C.2     1  UNL1        0.2474
      3 N          63.6634   87.1325   13.5880 N.am    1  UNL1       -0.2665
      4 H          64.3192   87.3788   14.2796 H       1  UNL1        0.1564
      5 C          63.4854   85.6941   13.2014 C.ar    1  UNL1        0.1560
      6 C          62.8801   85.3435   11.8745 C.ar    1  UNL1        0.0379
      7 C          62.7021   83.9051   11.4879 C.ar    1  UNL1        0.0239
      8 C          63.1295   82.8174   12.4283 C.ar    1  UNL1        0.1045
      9 N          63.7347   83.1681   13.7552 N.ar    1  UNL1       -0.1467
     10 N          63.9127   84.6064   14.1417 N.ar    1  UNL1       -0.1328
     11 C          62.9515   81.3790   12.0418 C.ar    1  UNL1        0.0408
     12 C          62.5387   80.3709   13.0729 C.ar    1  UNL1        0.1005
     13 N          62.3607   78.9325   12.6864 N.ar    1  UNL1       -0.2399
     14 C          62.5955   78.5023   11.2687 C.ar    1  UNL1        0.1284
     15 C          63.0083   79.5105   10.2376 C.ar    1  UNL1        0.1593
     16 F          63.2432   79.0803    8.8199 F       1  UNL1       -0.2025
     17 C          63.1863   80.9488   10.6241 C.ar    1  UNL1        0.0344
     18 C          63.0200   89.6340   13.3073 C.3     1  UNL1        0.1775
     19 N          63.5582   90.6174   12.3106 N.pl3   1  UNL1       -0.2964
     20 C          62.9202   90.7404   10.9587 C.3     1  UNL1        0.0917
     21 C          63.4584   91.7238    9.9620 C.3     1  UNL1        0.0263
     22 C          64.6347   92.5841   10.3173 C.3     1  UNL1        0.0342
     23 C          65.2727   92.4610   11.6692 C.2     1  UNL1        0.0496
     24 C          64.7345   91.4777   12.6659 C.2     1  UNL1        0.1032
     25 C          65.5644   91.5785   13.9113 C.2     1  UNL1        0.2682
     26 O          65.3762   90.7748   15.1638 O.2     1  UNL1       -0.2681
     27 N          66.6156   92.6243   13.6844 N.am    1  UNL1       -0.2238
     28 C          66.4353   93.1697   12.2987 C.2     1  UNL1        0.2523
     29 O          67.2709   94.2364   11.6554 O.2     1  UNL1       -0.2698
     30 C          67.6631   93.0500   14.6701 C.3     1  UNL1        0.0831
     31 C          68.2817   94.1108   15.5315 C.3     1  UNL1        0.0220
     32 C          68.8590   92.7264   15.5158 C.3     1  UNL1        0.0220
@<TRIPOS>BOND
     1     1     2    2
     2     2    18    1
     3    18    19    1
     4    19    20    1
     5    20    21    1
     6    21    22    1
     7    22    23    1
     8    23    24    2
     9    24    25    1
    10    25    26    2
    11    25    27   am
    12    27    30    1
    13    30    31    1
    14    31    32    1
    15    27    28   am
    16    28    29    2
    17     2     3   am
    18     3     5    1
    19     5     6   ar
    20     6     7   ar
    21     7     8   ar
    22     8    11    1
    23    11    12   ar
    24    12    13   ar
    25    13    14   ar
    26    14    15   ar
    27    15    16    1
    28    15    17   ar
    29     8     9   ar
    30     9    10   ar
    31    24    19    1
    32    32    30    1
    33    10     5   ar
    34    28    23    1
    35    17    11   ar
    36     3     4    1
@<TRIPOS>MOLECULE
*****
 32 36 0 0 0
SMALL
GASTEIGER

@<TRIPOS>ATOM
      1 O          58.6040   95.7716   -1.2847 O.2     1  UNL1       -0.2729
      2 C          60.0031   95.2344   -1.3497 C.2     1  UNL1        0.2474
      3 N          60.3090   94.0406   -2.2047 N.am    1  UNL1       -0.2665
      4 H          61.2272   93.6880   -2.2474 H       1  UNL1        0.1564
      5 C          59.2160   93.3839   -2.9947 C.ar    1  UNL1        0.1560
      6 C          58.3291   92.3640   -2.3439 C.ar    1  UNL1        0.0379
      7 C          57.2361   91.7073   -3.1339 C.ar    1  UNL1        0.0239
      8 C          57.0300   92.0705   -4.5746 C.ar    1  UNL1        0.1045
      9 N          57.9168   93.0903   -5.2253 N.ar    1  UNL1       -0.1467
     10 N          59.0098   93.7470   -4.4354 N.ar    1  UNL1       -0.1328
     11 C          55.9369   91.4138   -5.3646 C.ar    1  UNL1        0.0408
     12 C          55.6545   91.8598   -6.7687 C.ar    1  UNL1        0.1005
     13 N          54.5615   91.2031   -7.5587 N.ar    1  UNL1       -0.2399
     14 C          53.7509   90.1004   -6.9446 C.ar    1  UNL1        0.1284
     15 C          54.0333   89.6544   -5.5405 C.ar    1  UNL1        0.1593
     16 F          53.2227   88.5517   -4.9264 F       1  UNL1       -0.2025
     17 C          55.1264   90.3111   -4.7506 C.ar    1  UNL1        0.0344
     18 C          61.0961   95.8911   -0.5598 C.3     1  UNL1        0.1775
     19 N          62.2184   95.0663   -0.0028 N.pl3   1  UNL1       -0.2964
     20 C          63.5998   95.1974   -0.5722 C.3     1  UNL1        0.0917
     21 C          64.7220   94.3726   -0.0152 C.3     1  UNL1        0.0263
     22 C          64.4627   93.4166    1.1112 C.3     1  UNL1        0.0342
     23 C          63.0813   93.2854    1.6806 C.2     1  UNL1        0.0496
     24 C          61.9591   94.1102    1.1236 C.2     1  UNL1        0.1032
     25 C          60.7113   93.7681    1.8827 C.2     1  UNL1        0.2682
     26 O          59.3513   94.3587    1.6555 O.2     1  UNL1       -0.2681
     27 N          61.0624   92.7319    2.9088 N.am    1  UNL1       -0.2238
     28 C          62.5271   92.4335    2.7839 C.2     1  UNL1        0.2523
     29 O          63.3017   91.4551    3.6161 O.2     1  UNL1       -0.2698
     30 C          60.1150   92.1041    3.8879 C.3     1  UNL1        0.0831
     31 C          58.7301   91.9600    4.4457 C.3     1  UNL1        0.0220
     32 C          59.8592   91.1610    5.0259 C.3     1  UNL1        0.0220
@<TRIPOS>BOND
     1     1     2    2
     2     2    18    1
     3    18    19    1
     4    19    20    1
     5    20    21    1
     6    21    22    1
     7    22    23    1
     8    23    24    2
     9    24    25    1
    10    25    26    2
    11    25    27   am
    12    27    30    1
    13    30    31    1
    14    31    32    1
    15    27    28   am
    16    28    29    2
    17     2     3   am
    18     3     5    1
    19     5     6   ar
    20     6     7   ar
    21     7     8   ar
    22     8    11    1
    23    11    12   ar
    24    12    13   ar
    25    13    14   ar
    26    14    15   ar
    27    15    16    1
    28    15    17   ar
    29     8     9   ar
    30     9    10   ar
    31    24    19    1
    32    32    30    1
    33    10     5   ar
    34    28    23    1
    35    17    11   ar
    36     3     4    1
@<TRIPOS>MOLECULE
*****
 32 36 0 0 0
SMALL
GASTEIGER

@<TRIPOS>ATOM
      1 O          61.8301   92.7672    2.4033 O.2     1  UNL1       -0.2729
      2 C          60.5366   93.4811    2.1437 C.2     1  UNL1        0.2474
      3 N          59.3249   93.1614    2.9681 N.am    1  UNL1       -0.2665
      4 H          58.4760   93.6300    2.7977 H       1  UNL1        0.1564
      5 C          59.4067   92.1279    4.0521 C.ar    1  UNL1        0.1560
      6 C          58.1616   91.6857    4.7623 C.ar    1  UNL1        0.0379
      7 C          58.2433   90.6522    5.8463 C.ar    1  UNL1        0.0239
      8 C          59.5702   90.0607    6.2202 C.ar    1  UNL1        0.1045
      9 N          60.8152   90.5029    5.5100 N.ar    1  UNL1       -0.1467
     10 N          60.7335   91.5364    4.4260 N.ar    1  UNL1       -0.1328
     11 C          59.6519   89.0272    7.3042 C.ar    1  UNL1        0.0408
     12 C          59.1879   87.6253    7.0404 C.ar    1  UNL1        0.1005
     13 N          59.2696   86.5918    8.1244 N.ar    1  UNL1       -0.2399
     14 C          59.8154   86.9601    9.4722 C.ar    1  UNL1        0.1284
     15 C          60.2794   88.3619    9.7359 C.ar    1  UNL1        0.1593
     16 F          60.8252   88.7302   11.0838 F       1  UNL1       -0.2025
     17 C          60.1977   89.3954    8.6519 C.ar    1  UNL1        0.0344
     18 C          60.4548   94.5146    1.0597 C.3     1  UNL1        0.1775
     19 N          60.1110   94.1058   -0.3420 N.pl3   1  UNL1       -0.2964
     20 C          58.8189   93.3968   -0.6208 C.3     1  UNL1        0.0917
     21 C          58.4751   92.9880   -2.0225 C.3     1  UNL1        0.0263
     22 C          59.4234   93.2882   -3.1453 C.3     1  UNL1        0.0342
     23 C          60.7155   93.9972   -2.8664 C.2     1  UNL1        0.0496
     24 C          61.0593   94.4060   -1.4648 C.2     1  UNL1        0.1032
     25 C          62.3957   95.0865   -1.4950 C.2     1  UNL1        0.2682
     26 O          63.1224   95.6553   -0.3125 O.2     1  UNL1       -0.2681
     27 N          62.8779   95.0982   -2.9153 N.am    1  UNL1       -0.2238
     28 C          61.8394   94.4250   -3.7629 C.2     1  UNL1        0.2523
     29 O          61.9121   94.2162   -5.2465 O.2     1  UNL1       -0.2698
     30 C          64.1714   95.6809   -3.4026 C.3     1  UNL1        0.0831
     31 C          65.4439   96.4271   -3.1311 C.3     1  UNL1        0.0220
     32 C          65.1392   95.9439   -4.5180 C.3     1  UNL1        0.0220
@<TRIPOS>BOND
     1     1     2    2
     2     2    18    1
     3    18    19    1
     4    19    20    1
     5    20    21    1
     6    21    22    1
     7    22    23    1
     8    23    24    2
     9    24    25    1
    10    25    26    2
    11    25    27   am
    12    27    30    1
    13    30    31    1
    14    31    32    1
    15    27    28   am
    16    28    29    2
    17     2     3   am
    18     3     5    1
    19     5     6   ar
    20     6     7   ar
    21     7     8   ar
    22     8    11    1
    23    11    12   ar
    24    12    13   ar
    25    13    14   ar
    26    14    15   ar
    27    15    16    1
    28    15    17   ar
    29     8     9   ar
    30     9    10   ar
    31    24    19    1
    32    32    30    1
    33    10     5   ar
    34    28    23    1
    35    17    11   ar
    36     3     4    1
@<TRIPOS>MOLECULE
*****
 32 36 0 0 0
SMALL
GASTEIGER

@<TRIPOS>ATOM
      1 O          61.3962   92.0483    1.5665 O.2     1  UNL1       -0.2729
      2 C          60.5091   93.2516    1.6908 C.2     1  UNL1        0.2474
      3 N          59.6057   93.3978    2.8792 N.am    1  UNL1       -0.2665
      4 H          59.0235   94.1875    2.9608 H       1  UNL1        0.1564
      5 C          59.5893   92.3408    3.9435 C.ar    1  UNL1        0.1560
      6 C          58.2850   91.8840    4.5267 C.ar    1  UNL1        0.0379
      7 C          58.2686   90.8270    5.5910 C.ar    1  UNL1        0.0239
      8 C          59.5566   90.2269    6.0719 C.ar    1  UNL1        0.1045
      9 N          60.8608   90.6838    5.4886 N.ar    1  UNL1       -0.1467
     10 N          60.8772   91.7408    4.4244 N.ar    1  UNL1       -0.1328
     11 C          59.5402   89.1700    7.1361 C.ar    1  UNL1        0.0408
     12 C          58.8151   87.8783    6.8992 C.ar    1  UNL1        0.1005
     13 N          58.7988   86.8214    7.9635 N.ar    1  UNL1       -0.2399
     14 C          59.5074   87.0561    9.2646 C.ar    1  UNL1        0.1284
     15 C          60.2324   88.3476    9.5014 C.ar    1  UNL1        0.1593
     16 F          60.9411   88.5823   10.8025 F       1  UNL1       -0.2025
     17 C          60.2488   89.4046    8.4372 C.ar    1  UNL1        0.0344
     18 C          60.5255   94.3085    0.6266 C.3     1  UNL1        0.1775
     19 N          61.7762   95.0963    0.3711 N.pl3   1  UNL1       -0.2964
     20 C          62.3339   95.9862    1.4420 C.3     1  UNL1        0.0917
     21 C          63.5846   96.7739    1.1865 C.3     1  UNL1        0.0263
     22 C          64.2775   96.6717   -0.1399 C.3     1  UNL1        0.0342
     23 C          63.7198   95.7817   -1.2108 C.2     1  UNL1        0.0496
     24 C          62.4692   94.9940   -0.9553 C.2     1  UNL1        0.1032
     25 C          62.1569   94.2057   -2.1928 C.2     1  UNL1        0.2682
     26 O          60.9915   93.2795   -2.3774 O.2     1  UNL1       -0.2681
     27 N          63.2145   94.5063   -3.2130 N.am    1  UNL1       -0.2238
     28 C          64.1805   95.4803   -2.6061 C.2     1  UNL1        0.2523
     29 O          65.3941   96.0524   -3.2768 O.2     1  UNL1       -0.2698
     30 C          63.2926   93.9334   -4.5972 C.3     1  UNL1        0.0831
     31 C          62.8221   93.9086   -6.0212 C.3     1  UNL1        0.0220
     32 C          63.8984   92.9661   -5.5705 C.3     1  UNL1        0.0220
@<TRIPOS>BOND
     1     1     2    2
     2     2    18    1
     3    18    19    1
     4    19    20    1
     5    20    21    1
     6    21    22    1
     7    22    23    1
     8    23    24    2
     9    24    25    1
    10    25    26    2
    11    25    27   am
    12    27    30    1
    13    30    31    1
    14    31    32    1
    15    27    28   am
    16    28    29    2
    17     2     3   am
    18     3     5    1
    19     5     6   ar
    20     6     7   ar
    21     7     8   ar
    22     8    11    1
    23    11    12   ar
    24    12    13   ar
    25    13    14   ar
    26    14    15   ar
    27    15    16    1
    28    15    17   ar
    29     8     9   ar
    30     9    10   ar
    31    24    19    1
    32    32    30    1
    33    10     5   ar
    34    28    23    1
    35    17    11   ar
    36     3     4    1
@<TRIPOS>MOLECULE
*****
 32 36 0 0 0
SMALL
GASTEIGER

@<TRIPOS>ATOM
      1 O          61.6536   92.3024    1.7189 O.2     1  UNL1       -0.2729
      2 C          60.6815   93.4421    1.7983 C.2     1  UNL1        0.2474
      3 N          59.6765   93.4945    2.9106 N.am    1  UNL1       -0.2665
      4 H          59.0386   94.2425    2.9628 H       1  UNL1        0.1564
      5 C          59.6436   92.4072    3.9434 C.ar    1  UNL1        0.1560
      6 C          58.3384   91.9958    4.5579 C.ar    1  UNL1        0.0379
      7 C          58.3054   90.9085    5.5908 C.ar    1  UNL1        0.0239
      8 C          59.5776   90.2327    6.0091 C.ar    1  UNL1        0.1045
      9 N          60.8826   90.6441    5.3947 N.ar    1  UNL1       -0.1467
     10 N          60.9156   91.7313    4.3618 N.ar    1  UNL1       -0.1328
     11 C          59.5446   89.1454    7.0420 C.ar    1  UNL1        0.0408
     12 C          58.8431   87.8525    6.7478 C.ar    1  UNL1        0.1005
     13 N          58.8101   86.7652    7.7806 N.ar    1  UNL1       -0.2399
     14 C          59.4786   86.9709    9.1076 C.ar    1  UNL1        0.1284
     15 C          60.1800   88.2637    9.4018 C.ar    1  UNL1        0.1593
     16 F          60.8485   88.4693   10.7288 F       1  UNL1       -0.2025
     17 C          60.2130   89.3510    8.3689 C.ar    1  UNL1        0.0344
     18 C          60.7145   94.5294    0.7655 C.3     1  UNL1        0.1775
     19 N          61.1120   94.2116   -0.6456 N.pl3   1  UNL1       -0.2964
     20 C          62.5345   93.8562   -0.9621 C.3     1  UNL1        0.0917
     21 C          62.9320   93.5384   -2.3731 C.3     1  UNL1        0.0263
     22 C          61.9069   93.5760   -3.4676 C.3     1  UNL1        0.0342
     23 C          60.4844   93.9314   -3.1511 C.2     1  UNL1        0.0496
     24 C          60.0870   94.2491   -1.7401 C.2     1  UNL1        0.1032
     25 C          58.6202   94.5631   -1.7311 C.2     1  UNL1        0.2682
     26 O          57.8055   94.9354   -0.5279 O.2     1  UNL1       -0.2681
     27 N          58.1112   94.4394   -3.1367 N.am    1  UNL1       -0.2238
     28 C          59.2633   94.0489   -4.0142 C.2     1  UNL1        0.2523
     29 O          59.2047   93.8168   -5.4950 O.2     1  UNL1       -0.2698
     30 C          56.6980   94.6662   -3.5858 C.3     1  UNL1        0.0831
     31 C          55.2915   95.0914   -3.2843 C.3     1  UNL1        0.0220
     32 C          55.6570   94.6340   -4.6653 C.3     1  UNL1        0.0220
@<TRIPOS>BOND
     1     1     2    2
     2     2    18    1
     3    18    19    1
     4    19    20    1
     5    20    21    1
     6    21    22    1
     7    22    23    1
     8    23    24    2
     9    24    25    1
    10    25    26    2
    11    25    27   am
    12    27    30    1
    13    30    31    1
    14    31    32    1
    15    27    28   am
    16    28    29    2
    17     2     3   am
    18     3     5    1
    19     5     6   ar
    20     6     7   ar
    21     7     8   ar
    22     8    11    1
    23    11    12   ar
    24    12    13   ar
    25    13    14   ar
    26    14    15   ar
    27    15    16    1
    28    15    17   ar
    29     8     9   ar
    30     9    10   ar
    31    24    19    1
    32    32    30    1
    33    10     5   ar
    34    28    23    1
    35    17    11   ar
    36     3     4    1
