@<TRIPOS>MOLECULE
*****
 41 44 0 0 0
SMALL
GASTEIGER

@<TRIPOS>ATOM
      1 C          63.4033   90.4894   14.2436 C.3     1  UNL1        0.1146
      2 F          62.6946   87.7600   18.6080 F       1  UNL1       -0.2041
      3 C          63.2061   87.8500   17.2007 C.ar    1  UNL1        0.1429
      4 C          63.8746   86.6655   16.5685 C.ar    1  UNL1        0.0667
      5 C          64.3861   86.7555   15.1612 C.ar    1  UNL1        0.1461
      6 C          64.2290   88.0302   14.3863 C.ar    1  UNL1        0.0349
      7 C          63.5604   89.2147   15.0185 C.ar    1  UNL1        0.0045
      8 C          63.0490   89.1247   16.4258 C.ar    1  UNL1        0.0275
      9 O          65.0546   85.5709   14.5290 O.3     1  UNL1       -0.4263
     10 C          64.2315   84.4110   14.0525 C.3     1  UNL1        0.4723
     11 F          64.6493   83.6199   15.2565 F       1  UNL1       -0.1579
     12 F          63.8137   85.2021   12.8485 F       1  UNL1       -0.1579
     13 C          63.4083   83.2511   13.5760 C.3     1  UNL1        0.4202
     14 F          63.6225   81.8877   14.1637 F       1  UNL1       -0.1876
     15 F          62.3709   83.4545   12.5118 F       1  UNL1       -0.1876
     16 C          64.7654   90.9297   14.6917 C.ar    1  UNL1        0.0792
     17 C          65.9905   90.3289   14.0688 C.ar    1  UNL1        0.0175
     18 C          67.3526   90.7693   14.5170 C.ar    1  UNL1        0.0142
     19 C          67.4895   91.8104   15.5881 C.ar    1  UNL1        0.0768
     20 CL         68.8517   92.2507   16.0364 Cl      1  UNL1       -0.0806
     21 C          66.2644   92.4111   16.2111 C.ar    1  UNL1        0.1098
     22 N          64.9023   91.9709   15.7629 N.ar    1  UNL1       -0.2454
     23 N          62.0413   90.0491   13.7954 N.pl3   1  UNL1       -0.3077
     24 H          61.2607   90.1945   14.3774 H       1  UNL1        0.1492
     25 C          61.8685   89.3873   12.4604 C.ar    1  UNL1        0.1607
     26 N          62.4839   88.0873   12.0346 N.ar    1  UNL1       -0.2198
     27 C          62.0457   87.8059   10.6280 C.ar    1  UNL1        0.1667
     28 C          61.1596   88.9319   10.1844 C.ar    1  UNL1        0.0880
     29 BR         60.4989   89.0583    8.8436 Br      1  UNL1       -0.0403
     30 S          61.0500   89.9093   11.3168 S.2     1  UNL1       -0.0450
     31 C          62.4268   86.6086    9.8086 C.3     1  UNL1        0.4359
     32 F          62.8078   85.4113    8.9893 F       1  UNL1       -0.1644
     33 F          63.2765   87.4793    8.9313 F       1  UNL1       -0.1644
     34 F          61.5770   85.7378   10.6859 F       1  UNL1       -0.1644
     35 C          63.2463   91.7641   13.4686 C.3     1  UNL1        0.0543
     36 C          64.2587   92.1382   12.4270 C.ar    1  UNL1       -0.0199
     37 C          65.3568   93.1039   12.7612 C.ar    1  UNL1       -0.0042
     38 C          66.3693   93.4780   11.7196 C.ar    1  UNL1       -0.0003
     39 C          66.2837   92.8865   10.3439 C.ar    1  UNL1       -0.0000
     40 C          65.1856   91.9207   10.0097 C.ar    1  UNL1       -0.0003
     41 C          64.1732   91.5466   11.0513 C.ar    1  UNL1       -0.0042
@<TRIPOS>BOND
     1     2     3    1
     2     3     4   ar
     3     4     5   ar
     4     5     9    1
     5     9    10    1
     6    10    11    1
     7    10    12    1
     8    10    13    1
     9    13    14    1
    10    13    15    1
    11     5     6   ar
    12     6     7   ar
    13     7     1    1
    14     1    35    1
    15    35    36    1
    16    36    37   ar
    17    37    38   ar
    18    38    39   ar
    19    39    40   ar
    20    40    41   ar
    21     1    23    1
    22    23    25    1
    23    25    26   ar
    24    26    27   ar
    25    27    31    1
    26    31    32    1
    27    31    33    1
    28    31    34    1
    29    27    28   ar
    30    28    29    1
    31    28    30   ar
    32     1    16    1
    33    16    17   ar
    34    17    18   ar
    35    18    19   ar
    36    19    20    1
    37    19    21   ar
    38    21    22   ar
    39     7     8   ar
    40     8     3   ar
    41    41    36   ar
    42    30    25   ar
    43    22    16   ar
    44    23    24    1
@<TRIPOS>MOLECULE
*****
 41 44 0 0 0
SMALL
GASTEIGER

@<TRIPOS>ATOM
      1 C          62.1846   86.9626   10.8109 C.3     1  UNL1        0.1146
      2 F          63.2288   81.8898   10.3912 F       1  UNL1       -0.2041
      3 C          63.2228   83.1521   11.2014 C.ar    1  UNL1        0.1429
      4 C          63.7329   83.1404   12.6119 C.ar    1  UNL1        0.0667
      5 C          63.7269   84.4028   13.4221 C.ar    1  UNL1        0.1461
      6 C          63.2108   85.6768   12.8218 C.ar    1  UNL1        0.0349
      7 C          62.7007   85.6885   11.4113 C.ar    1  UNL1        0.0045
      8 C          62.7067   84.4261   10.6011 C.ar    1  UNL1        0.0275
      9 O          64.2370   84.3910   14.8327 O.3     1  UNL1       -0.4263
     10 C          63.7347   85.4021   15.8203 C.3     1  UNL1        0.4723
     11 F          64.8959   86.2949   15.4969 F       1  UNL1       -0.1579
     12 F          62.5735   84.5094   16.1438 F       1  UNL1       -0.1579
     13 C          63.2324   86.4132   16.8079 C.3     1  UNL1        0.4202
     14 F          63.4626   87.8757   16.5669 F       1  UNL1       -0.1876
     15 F          62.4999   85.9618   18.0366 F       1  UNL1       -0.1876
     16 C          62.0301   86.2758    9.4864 C.ar    1  UNL1        0.0792
     17 C          63.2385   85.7551    8.7661 C.ar    1  UNL1        0.0175
     18 C          63.0840   85.0683    7.4415 C.ar    1  UNL1        0.0142
     19 C          61.7212   84.9022    6.8372 C.ar    1  UNL1        0.0768
     20 CL         61.5667   84.2154    5.5126 Cl      1  UNL1       -0.0806
     21 C          60.5128   85.4229    7.5575 C.ar    1  UNL1        0.1098
     22 N          60.6673   86.1096    8.8820 N.ar    1  UNL1       -0.2454
     23 N          62.3390   87.6494   12.1354 N.pl3   1  UNL1       -0.3077
     24 H          61.9106   87.2730   12.9379 H       1  UNL1        0.1492
     25 C          63.1463   88.9095   12.2372 C.ar    1  UNL1        0.1607
     26 N          63.4609   89.8485   11.1106 N.ar    1  UNL1       -0.2198
     27 C          64.2896   90.9712   11.6606 C.ar    1  UNL1        0.1667
     28 C          64.4872   90.7262   13.1272 C.ar    1  UNL1        0.0880
     29 BR         65.2565   91.6017   14.0716 Br      1  UNL1       -0.0403
     30 S          63.7806   89.4520   13.4836 S.2     1  UNL1       -0.0450
     31 C          64.8266   92.1348   10.8810 C.3     1  UNL1        0.4359
     32 F          65.3636   93.2984   10.1015 F       1  UNL1       -0.1644
     33 F          63.5155   92.2590   10.1631 F       1  UNL1       -0.1644
     34 F          66.1378   92.0106   11.5990 F       1  UNL1       -0.1644
     35 C          61.6685   88.2366   10.2105 C.3     1  UNL1        0.0543
     36 C          60.5371   88.9707   10.8670 C.ar    1  UNL1       -0.0199
     37 C          59.6024   88.2411   11.7857 C.ar    1  UNL1       -0.0042
     38 C          58.4710   88.9752   12.4422 C.ar    1  UNL1       -0.0003
     39 C          58.2744   90.4390   12.1801 C.ar    1  UNL1       -0.0000
     40 C          59.2091   91.1687   11.2615 C.ar    1  UNL1       -0.0003
     41 C          60.3405   90.4345   10.6049 C.ar    1  UNL1       -0.0042
@<TRIPOS>BOND
     1     2     3    1
     2     3     4   ar
     3     4     5   ar
     4     5     9    1
     5     9    10    1
     6    10    11    1
     7    10    12    1
     8    10    13    1
     9    13    14    1
    10    13    15    1
    11     5     6   ar
    12     6     7   ar
    13     7     1    1
    14     1    35    1
    15    35    36    1
    16    36    37   ar
    17    37    38   ar
    18    38    39   ar
    19    39    40   ar
    20    40    41   ar
    21     1    23    1
    22    23    25    1
    23    25    26   ar
    24    26    27   ar
    25    27    31    1
    26    31    32    1
    27    31    33    1
    28    31    34    1
    29    27    28   ar
    30    28    29    1
    31    28    30   ar
    32     1    16    1
    33    16    17   ar
    34    17    18   ar
    35    18    19   ar
    36    19    20    1
    37    19    21   ar
    38    21    22   ar
    39     7     8   ar
    40     8     3   ar
    41    41    36   ar
    42    30    25   ar
    43    22    16   ar
    44    23    24    1
@<TRIPOS>MOLECULE
*****
 41 44 0 0 0
SMALL
GASTEIGER

@<TRIPOS>ATOM
      1 C          61.3125   93.3378   -0.4027 C.3     1  UNL1        0.1146
      2 F          63.9548   90.6550    3.1779 F       1  UNL1       -0.2041
      3 C          62.7535   91.4624    2.7842 C.ar    1  UNL1        0.1429
      4 C          61.6721   91.7357    3.7870 C.ar    1  UNL1        0.0667
      5 C          60.4708   92.5431    3.3933 C.ar    1  UNL1        0.1461
      6 C          60.3509   93.0771    1.9968 C.ar    1  UNL1        0.0349
      7 C          61.4323   92.8037    0.9939 C.ar    1  UNL1        0.0045
      8 C          62.6336   91.9964    1.3876 C.ar    1  UNL1        0.0275
      9 O          59.3893   92.8164    4.3962 O.3     1  UNL1       -0.4263
     10 C          58.6299   91.6775    5.0095 C.3     1  UNL1        0.4723
     11 F          57.3466   92.4302    4.8184 F       1  UNL1       -0.1579
     12 F          59.9132   90.9248    5.2007 F       1  UNL1       -0.1579
     13 C          57.8705   90.5385    5.6228 C.3     1  UNL1        0.4202
     14 F          58.6062   89.4502    6.3468 F       1  UNL1       -0.1876
     15 F          56.3754   90.4880    5.5121 F       1  UNL1       -0.1876
     16 C          62.5049   94.2172   -0.1687 C.ar    1  UNL1        0.0792
     17 C          62.3146   95.6743    0.1324 C.ar    1  UNL1        0.0175
     18 C          63.5071   96.5537    0.3664 C.ar    1  UNL1        0.0142
     19 C          64.8897   95.9760    0.2992 C.ar    1  UNL1        0.0768
     20 CL         66.0822   96.8554    0.5332 Cl      1  UNL1       -0.0806
     21 C          65.0800   94.5189   -0.0019 C.ar    1  UNL1        0.1098
     22 N          63.8876   93.6395   -0.2359 N.ar    1  UNL1       -0.2454
     23 N          60.1201   92.4584   -0.6367 N.pl3   1  UNL1       -0.3077
     24 H          60.1312   91.5225   -0.3314 H       1  UNL1        0.1492
     25 C          58.9107   93.0049   -1.3359 C.ar    1  UNL1        0.1607
     26 N          58.4467   92.6355   -2.7136 N.ar    1  UNL1       -0.2198
     27 C          57.2024   93.4190   -3.0092 C.ar    1  UNL1        0.1667
     28 C          56.8973   94.2727   -1.8142 C.ar    1  UNL1        0.0880
     29 BR         55.7395   95.2166   -1.6774 Br      1  UNL1       -0.0403
     30 S          57.9530   94.0168   -0.7800 S.2     1  UNL1       -0.0450
     31 C          56.4032   93.3594   -4.2773 C.3     1  UNL1        0.4359
     32 F          55.6042   93.3000   -5.5453 F       1  UNL1       -0.1644
     33 F          55.7432   92.0991   -3.8022 F       1  UNL1       -0.1644
     34 F          57.0633   94.6199   -4.7524 F       1  UNL1       -0.1644
     35 C          61.1927   93.8718   -1.7993 C.3     1  UNL1        0.0543
     36 C          62.3662   93.8049   -2.7311 C.ar    1  UNL1       -0.0199
     37 C          62.8918   95.0578   -3.3665 C.ar    1  UNL1       -0.0042
     38 C          64.0654   94.9909   -4.2983 C.ar    1  UNL1       -0.0003
     39 C          64.7134   93.6710   -4.5947 C.ar    1  UNL1       -0.0000
     40 C          64.1878   92.4179   -3.9593 C.ar    1  UNL1       -0.0003
     41 C          63.0142   92.4848   -3.0275 C.ar    1  UNL1       -0.0042
@<TRIPOS>BOND
     1     2     3    1
     2     3     4   ar
     3     4     5   ar
     4     5     9    1
     5     9    10    1
     6    10    11    1
     7    10    12    1
     8    10    13    1
     9    13    14    1
    10    13    15    1
    11     5     6   ar
    12     6     7   ar
    13     7     1    1
    14     1    35    1
    15    35    36    1
    16    36    37   ar
    17    37    38   ar
    18    38    39   ar
    19    39    40   ar
    20    40    41   ar
    21     1    23    1
    22    23    25    1
    23    25    26   ar
    24    26    27   ar
    25    27    31    1
    26    31    32    1
    27    31    33    1
    28    31    34    1
    29    27    28   ar
    30    28    29    1
    31    28    30   ar
    32     1    16    1
    33    16    17   ar
    34    17    18   ar
    35    18    19   ar
    36    19    20    1
    37    19    21   ar
    38    21    22   ar
    39     7     8   ar
    40     8     3   ar
    41    41    36   ar
    42    30    25   ar
    43    22    16   ar
    44    23    24    1
@<TRIPOS>MOLECULE
*****
 41 44 0 0 0
SMALL
GASTEIGER

@<TRIPOS>ATOM
      1 C          63.6476   90.1622   12.5871 C.3     1  UNL1        0.1146
      2 F          58.5036   89.6621   13.1248 F       1  UNL1       -0.2041
      3 C          59.7268   89.6440   12.2568 C.ar    1  UNL1        0.1429
      4 C          59.6013   89.3579   10.7897 C.ar    1  UNL1        0.0667
      5 C          60.8245   89.3399    9.9217 C.ar    1  UNL1        0.1461
      6 C          62.1733   89.6080   10.5208 C.ar    1  UNL1        0.0349
      7 C          62.2988   89.8941   11.9879 C.ar    1  UNL1        0.0045
      8 C          61.0756   89.9121   12.8559 C.ar    1  UNL1        0.0275
      9 O          60.6990   89.0537    8.4546 O.3     1  UNL1       -0.4263
     10 C          60.1318   87.7445    7.9917 C.3     1  UNL1        0.4723
     11 F          58.9789   88.4672    7.3604 F       1  UNL1       -0.1579
     12 F          61.2847   87.0219    8.6230 F       1  UNL1       -0.1579
     13 C          59.5646   86.4353    7.5288 C.3     1  UNL1        0.4202
     14 F          60.4778   85.3624    7.0141 F       1  UNL1       -0.1876
     15 F          58.0842   86.1991    7.5805 F       1  UNL1       -0.1876
     16 C          63.7322   88.7334   13.0359 C.ar    1  UNL1        0.0792
     17 C          64.3912   88.3947   14.3401 C.ar    1  UNL1        0.0175
     18 C          64.4757   86.9659   14.7890 C.ar    1  UNL1        0.0142
     19 C          63.9012   85.8759   13.9336 C.ar    1  UNL1        0.0768
     20 CL         63.9858   84.4470   14.3824 Cl      1  UNL1       -0.0806
     21 C          63.2422   86.2145   12.6294 C.ar    1  UNL1        0.1098
     22 N          63.1576   87.6433   12.1805 N.ar    1  UNL1       -0.2454
     23 N          63.5631   91.5909   12.1382 N.pl3   1  UNL1       -0.3077
     24 H          62.7255   92.0949   12.2554 H       1  UNL1        0.1492
     25 C          64.7546   92.2517   11.5109 C.ar    1  UNL1        0.1607
     26 N          65.9278   91.5508   10.8927 N.ar    1  UNL1       -0.2198
     27 C          66.8803   92.5953   10.3913 C.ar    1  UNL1        0.1667
     28 C          66.2958   93.9419   10.6996 C.ar    1  UNL1        0.0880
     29 BR         66.9163   95.2681   10.3732 Br      1  UNL1       -0.0403
     30 S          64.9821   93.7296   11.3915 S.2     1  UNL1       -0.0450
     31 C          68.1879   92.3385    9.7025 C.3     1  UNL1        0.4359
     32 F          69.4953   92.0818    9.0136 F       1  UNL1       -0.1644
     33 F          68.6968   91.6406   10.9287 F       1  UNL1       -0.1644
     34 F          67.6788   93.0365    8.4762 F       1  UNL1       -0.1644
     35 C          64.9963   90.4302   13.1862 C.3     1  UNL1        0.0543
     36 C          65.1061   91.1752   14.4835 C.ar    1  UNL1       -0.0199
     37 C          63.9660   91.1564   15.4580 C.ar    1  UNL1       -0.0042
     38 C          64.0757   91.9014   16.7553 C.ar    1  UNL1       -0.0003
     39 C          65.3256   92.6653   17.0780 C.ar    1  UNL1       -0.0000
     40 C          66.4659   92.6841   16.1035 C.ar    1  UNL1       -0.0003
     41 C          66.3561   91.9391   14.8063 C.ar    1  UNL1       -0.0042
@<TRIPOS>BOND
     1     2     3    1
     2     3     4   ar
     3     4     5   ar
     4     5     9    1
     5     9    10    1
     6    10    11    1
     7    10    12    1
     8    10    13    1
     9    13    14    1
    10    13    15    1
    11     5     6   ar
    12     6     7   ar
    13     7     1    1
    14     1    35    1
    15    35    36    1
    16    36    37   ar
    17    37    38   ar
    18    38    39   ar
    19    39    40   ar
    20    40    41   ar
    21     1    23    1
    22    23    25    1
    23    25    26   ar
    24    26    27   ar
    25    27    31    1
    26    31    32    1
    27    31    33    1
    28    31    34    1
    29    27    28   ar
    30    28    29    1
    31    28    30   ar
    32     1    16    1
    33    16    17   ar
    34    17    18   ar
    35    18    19   ar
    36    19    20    1
    37    19    21   ar
    38    21    22   ar
    39     7     8   ar
    40     8     3   ar
    41    41    36   ar
    42    30    25   ar
    43    22    16   ar
    44    23    24    1
@<TRIPOS>MOLECULE
*****
 41 44 0 0 0
SMALL
GASTEIGER

@<TRIPOS>ATOM
      1 C          62.9143   88.7962   12.2787 C.3     1  UNL1        0.1146
      2 F          58.6181   91.6672   11.7304 F       1  UNL1       -0.2041
      3 C          59.6255   90.7143   11.1584 C.ar    1  UNL1        0.1429
      4 C          59.4923   90.2441    9.7403 C.ar    1  UNL1        0.0667
      5 C          60.4997   89.2913    9.1683 C.ar    1  UNL1        0.1461
      6 C          61.6404   88.8086   10.0144 C.ar    1  UNL1        0.0349
      7 C          61.7736   89.2788   11.4325 C.ar    1  UNL1        0.0045
      8 C          60.7662   90.2317   12.0045 C.ar    1  UNL1        0.0275
      9 O          60.3665   88.8211    7.7501 O.3     1  UNL1       -0.4263
     10 C          59.5601   89.6184    6.7682 C.3     1  UNL1        0.4723
     11 F          60.7590   90.4711    6.4760 F       1  UNL1       -0.1579
     12 F          58.3611   88.7657    7.0605 F       1  UNL1       -0.1579
     13 C          58.7536   90.4157    5.7864 C.3     1  UNL1        0.4202
     14 F          59.4425   91.3314    4.8185 F       1  UNL1       -0.1876
     15 F          57.2583   90.2972    5.7726 F       1  UNL1       -0.1876
     16 C          63.6218   90.1022   12.0697 C.ar    1  UNL1        0.0792
     17 C          63.6199   90.7480   10.7159 C.ar    1  UNL1        0.0175
     18 C          64.3275   92.0540   10.5069 C.ar    1  UNL1        0.0142
     19 C          65.0370   92.7142   11.6518 C.ar    1  UNL1        0.0768
     20 CL         65.7446   94.0203   11.4428 Cl      1  UNL1       -0.0806
     21 C          65.0389   92.0685   13.0057 C.ar    1  UNL1        0.1098
     22 N          64.3313   90.7625   13.2146 N.ar    1  UNL1       -0.2454
     23 N          62.2067   87.4902   12.4877 N.pl3   1  UNL1       -0.3077
     24 H          61.5415   87.4005   13.2078 H       1  UNL1        0.1492
     25 C          62.5128   86.3209   11.5995 C.ar    1  UNL1        0.1607
     26 N          62.9214   84.9512   12.0545 N.ar    1  UNL1       -0.2198
     27 C          63.1251   84.0997   10.8366 C.ar    1  UNL1        0.1667
     28 C          62.8424   84.9432    9.6288 C.ar    1  UNL1        0.0880
     29 BR         62.9238   84.4928    8.2002 Br      1  UNL1       -0.0403
     30 S          62.4640   86.3159   10.1002 S.2     1  UNL1       -0.0450
     31 C          63.5388   82.6579   10.8278 C.3     1  UNL1        0.4359
     32 F          63.9527   81.2162   10.8189 F       1  UNL1       -0.1644
     33 F          62.2570   82.2859   11.5122 F       1  UNL1       -0.1644
     34 F          64.8207   83.0301   10.1433 F       1  UNL1       -0.1644
     35 C          64.0549   88.3136   13.1249 C.3     1  UNL1        0.0543
     36 C          63.8008   87.8330   14.5228 C.ar    1  UNL1       -0.0199
     37 C          63.3029   88.7891   15.5658 C.ar    1  UNL1       -0.0042
     38 C          63.0488   88.3084   16.9638 C.ar    1  UNL1       -0.0003
     39 C          63.2926   86.8716   17.3188 C.ar    1  UNL1       -0.0000
     40 C          63.7905   85.9154   16.2758 C.ar    1  UNL1       -0.0003
     41 C          64.0446   86.3960   14.8778 C.ar    1  UNL1       -0.0042
@<TRIPOS>BOND
     1     2     3    1
     2     3     4   ar
     3     4     5   ar
     4     5     9    1
     5     9    10    1
     6    10    11    1
     7    10    12    1
     8    10    13    1
     9    13    14    1
    10    13    15    1
    11     5     6   ar
    12     6     7   ar
    13     7     1    1
    14     1    35    1
    15    35    36    1
    16    36    37   ar
    17    37    38   ar
    18    38    39   ar
    19    39    40   ar
    20    40    41   ar
    21     1    23    1
    22    23    25    1
    23    25    26   ar
    24    26    27   ar
    25    27    31    1
    26    31    32    1
    27    31    33    1
    28    31    34    1
    29    27    28   ar
    30    28    29    1
    31    28    30   ar
    32     1    16    1
    33    16    17   ar
    34    17    18   ar
    35    18    19   ar
    36    19    20    1
    37    19    21   ar
    38    21    22   ar
    39     7     8   ar
    40     8     3   ar
    41    41    36   ar
    42    30    25   ar
    43    22    16   ar
    44    23    24    1
@<TRIPOS>MOLECULE
*****
 41 44 0 0 0
SMALL
GASTEIGER

@<TRIPOS>ATOM
      1 C          63.0177   88.9093   12.6437 C.3     1  UNL1        0.1146
      2 F          58.7218   91.7437   11.9285 F       1  UNL1       -0.2041
      3 C          59.7550   90.7944   11.3981 C.ar    1  UNL1        0.1429
      4 C          59.6736   90.3131    9.9798 C.ar    1  UNL1        0.0667
      5 C          60.7069   89.3638    9.4494 C.ar    1  UNL1        0.1461
      6 C          61.8215   88.8959   10.3374 C.ar    1  UNL1        0.0349
      7 C          61.9030   89.3772   11.7557 C.ar    1  UNL1        0.0045
      8 C          60.8697   90.3265   12.2861 C.ar    1  UNL1        0.0275
      9 O          60.6254   88.8825    8.0310 O.3     1  UNL1       -0.4263
     10 C          60.0006   87.5537    7.7247 C.3     1  UNL1        0.4723
     11 F          61.3476   86.8997    7.8145 F       1  UNL1       -0.1579
     12 F          58.6537   88.2077    7.6348 F       1  UNL1       -0.1579
     13 C          59.3759   86.2249    7.4183 C.3     1  UNL1        0.4202
     14 F          57.8961   86.0376    7.5764 F       1  UNL1       -0.1876
     15 F          60.2310   85.0833    6.9539 F       1  UNL1       -0.1876
     16 C          63.7707   90.1764   12.3661 C.ar    1  UNL1        0.0792
     17 C          64.5724   90.8264   13.4546 C.ar    1  UNL1        0.0175
     18 C          65.3254   92.0936   13.1769 C.ar    1  UNL1        0.0142
     19 C          65.2769   92.7108   11.8107 C.ar    1  UNL1        0.0768
     20 CL         66.0300   93.9781   11.5329 Cl      1  UNL1       -0.0806
     21 C          64.4753   92.0609   10.7221 C.ar    1  UNL1        0.1098
     22 N          63.7222   90.7937   10.9998 N.ar    1  UNL1       -0.2454
     23 N          62.2646   87.6421   12.9214 N.pl3   1  UNL1       -0.3077
     24 H          61.5678   87.6259   13.6167 H       1  UNL1        0.1492
     25 C          62.5732   86.3996   12.1397 C.ar    1  UNL1        0.1607
     26 N          62.8577   85.0439   12.7151 N.ar    1  UNL1       -0.2198
     27 C          63.1118   84.1011   11.5765 C.ar    1  UNL1        0.1667
     28 C          62.9844   84.8742   10.2974 C.ar    1  UNL1        0.0880
     29 BR         63.1592   84.3233    8.9131 Br      1  UNL1       -0.0403
     30 S          62.6515   86.2947   10.6454 S.2     1  UNL1       -0.0450
     31 C          63.4363   82.6415   11.6958 C.3     1  UNL1        0.4359
     32 F          63.7608   81.1819   11.8152 F       1  UNL1       -0.1644
     33 F          64.8863   82.9446   11.4601 F       1  UNL1       -0.1644
     34 F          61.9863   82.3385   11.9316 F       1  UNL1       -0.1644
     35 C          64.1324   88.4414   13.5317 C.3     1  UNL1        0.0543
     36 C          63.8250   87.8766   14.8869 C.ar    1  UNL1       -0.0199
     37 C          63.2478   88.7588   15.9538 C.ar    1  UNL1       -0.0042
     38 C          62.9404   88.1940   17.3090 C.ar    1  UNL1       -0.0003
     39 C          63.2102   86.7469   17.5972 C.ar    1  UNL1       -0.0000
     40 C          63.7874   85.8646   16.5302 C.ar    1  UNL1       -0.0003
     41 C          64.0948   86.4294   15.1750 C.ar    1  UNL1       -0.0042
@<TRIPOS>BOND
     1     2     3    1
     2     3     4   ar
     3     4     5   ar
     4     5     9    1
     5     9    10    1
     6    10    11    1
     7    10    12    1
     8    10    13    1
     9    13    14    1
    10    13    15    1
    11     5     6   ar
    12     6     7   ar
    13     7     1    1
    14     1    35    1
    15    35    36    1
    16    36    37   ar
    17    37    38   ar
    18    38    39   ar
    19    39    40   ar
    20    40    41   ar
    21     1    23    1
    22    23    25    1
    23    25    26   ar
    24    26    27   ar
    25    27    31    1
    26    31    32    1
    27    31    33    1
    28    31    34    1
    29    27    28   ar
    30    28    29    1
    31    28    30   ar
    32     1    16    1
    33    16    17   ar
    34    17    18   ar
    35    18    19   ar
    36    19    20    1
    37    19    21   ar
    38    21    22   ar
    39     7     8   ar
    40     8     3   ar
    41    41    36   ar
    42    30    25   ar
    43    22    16   ar
    44    23    24    1
@<TRIPOS>MOLECULE
*****
 41 44 0 0 0
SMALL
GASTEIGER

@<TRIPOS>ATOM
      1 C          62.2271   88.1019   11.6879 C.3     1  UNL1        0.1146
      2 F          64.7117   92.4291   10.2381 F       1  UNL1       -0.2041
      3 C          64.3812   91.4111   11.2890 C.ar    1  UNL1        0.1429
      4 C          64.9625   91.5387   12.6659 C.ar    1  UNL1        0.0667
      5 C          64.6320   90.5206   13.7168 C.ar    1  UNL1        0.1461
      6 C          63.7202   89.3751   13.3908 C.ar    1  UNL1        0.0349
      7 C          63.1390   89.2475   12.0140 C.ar    1  UNL1        0.0045
      8 C          63.4695   90.2655   10.9630 C.ar    1  UNL1        0.0275
      9 O          65.2133   90.6482   15.0937 O.3     1  UNL1       -0.4263
     10 C          66.2612   91.6847   15.3723 C.3     1  UNL1        0.4723
     11 F          65.2450   92.5178   16.0956 F       1  UNL1       -0.1579
     12 F          67.2775   90.8517   14.6490 F       1  UNL1       -0.1579
     13 C          67.3091   92.7212   15.6508 C.3     1  UNL1        0.4202
     14 F          67.2460   94.0544   14.9664 F       1  UNL1       -0.1876
     15 F          68.4202   92.4244   16.6140 F       1  UNL1       -0.1876
     16 C          61.0571   89.0402   11.6633 C.ar    1  UNL1        0.0792
     17 C          60.9957   90.1357   10.6406 C.ar    1  UNL1        0.0175
     18 C          59.8256   91.0741   10.6160 C.ar    1  UNL1        0.0142
     19 C          58.7171   90.9168   11.6141 C.ar    1  UNL1        0.0768
     20 CL         57.5470   91.8552   11.5895 Cl      1  UNL1       -0.0806
     21 C          58.7785   89.8213   12.6369 C.ar    1  UNL1        0.1098
     22 N          59.9485   88.8830   12.6615 N.ar    1  UNL1       -0.2454
     23 N          63.3971   87.1636   11.7125 N.pl3   1  UNL1       -0.3077
     24 H          64.2398   87.4158   11.2703 H       1  UNL1        0.1492
     25 C          63.2833   85.8410   12.4110 C.ar    1  UNL1        0.1607
     26 N          63.3110   84.4923   11.7551 N.ar    1  UNL1       -0.2198
     27 C          63.1666   83.4527   12.8266 C.ar    1  UNL1        0.1667
     28 C          63.0497   84.1589   14.1448 C.ar    1  UNL1        0.0880
     29 BR         62.8888   83.5039   15.4847 Br      1  UNL1       -0.0403
     30 S          63.1218   85.6349   13.8880 S.2     1  UNL1       -0.0450
     31 C          63.1432   81.9676   12.6169 C.3     1  UNL1        0.4359
     32 F          63.1197   80.4825   12.4073 F       1  UNL1       -0.1644
     33 F          64.6410   81.9552   12.5377 F       1  UNL1       -0.1644
     34 F          61.6453   81.9801   12.6962 F       1  UNL1       -0.1644
     35 C          61.3153   86.9564   11.3619 C.3     1  UNL1        0.0543
     36 C          60.9727   86.6536    9.9333 C.ar    1  UNL1       -0.0199
     37 C          59.6416   87.0653    9.3778 C.ar    1  UNL1       -0.0042
     38 C          59.2990   86.7625    7.9492 C.ar    1  UNL1       -0.0003
     39 C          60.2875   86.0480    7.0761 C.ar    1  UNL1       -0.0000
     40 C          61.6187   85.6362    7.6316 C.ar    1  UNL1       -0.0003
     41 C          61.9613   85.9391    9.0602 C.ar    1  UNL1       -0.0042
@<TRIPOS>BOND
     1     2     3    1
     2     3     4   ar
     3     4     5   ar
     4     5     9    1
     5     9    10    1
     6    10    11    1
     7    10    12    1
     8    10    13    1
     9    13    14    1
    10    13    15    1
    11     5     6   ar
    12     6     7   ar
    13     7     1    1
    14     1    35    1
    15    35    36    1
    16    36    37   ar
    17    37    38   ar
    18    38    39   ar
    19    39    40   ar
    20    40    41   ar
    21     1    23    1
    22    23    25    1
    23    25    26   ar
    24    26    27   ar
    25    27    31    1
    26    31    32    1
    27    31    33    1
    28    31    34    1
    29    27    28   ar
    30    28    29    1
    31    28    30   ar
    32     1    16    1
    33    16    17   ar
    34    17    18   ar
    35    18    19   ar
    36    19    20    1
    37    19    21   ar
    38    21    22   ar
    39     7     8   ar
    40     8     3   ar
    41    41    36   ar
    42    30    25   ar
    43    22    16   ar
    44    23    24    1
@<TRIPOS>MOLECULE
*****
 41 44 0 0 0
SMALL
GASTEIGER

@<TRIPOS>ATOM
      1 C          63.6748   90.8644   14.1695 C.3     1  UNL1        0.1146
      2 F          62.7098   91.4254    9.0947 F       1  UNL1       -0.2041
      3 C          63.5525   91.7284   10.2980 C.ar    1  UNL1        0.1429
      4 C          64.7553   92.6149   10.1673 C.ar    1  UNL1        0.0667
      5 C          65.5980   92.9180   11.3707 C.ar    1  UNL1        0.1461
      6 C          65.2379   92.3344   12.7047 C.ar    1  UNL1        0.0349
      7 C          64.0350   91.4479   12.8354 C.ar    1  UNL1        0.0045
      8 C          63.1923   91.1449   11.6321 C.ar    1  UNL1        0.0275
      9 O          66.8010   93.8045   11.2399 O.3     1  UNL1       -0.4263
     10 C          66.9678   94.6678   10.0246 C.3     1  UNL1        0.4723
     11 F          67.9247   93.6681    9.4458 F       1  UNL1       -0.1579
     12 F          66.0110   95.6675   10.6034 F       1  UNL1       -0.1579
     13 C          67.1347   95.5311    8.8093 C.3     1  UNL1        0.4202
     14 F          67.8306   96.8553    8.9198 F       1  UNL1       -0.1876
     15 F          66.6056   95.0701    7.4835 F       1  UNL1       -0.1876
     16 C          65.0316   91.2286   14.6951 C.ar    1  UNL1        0.0792
     17 C          66.2529   90.5435   14.1574 C.ar    1  UNL1        0.0175
     18 C          67.6098   90.9078   14.6831 C.ar    1  UNL1        0.0142
     19 C          67.7453   91.9570   15.7464 C.ar    1  UNL1        0.0768
     20 CL         69.1022   92.3213   16.2721 Cl      1  UNL1       -0.0806
     21 C          66.5240   92.6420   16.2842 C.ar    1  UNL1        0.1098
     22 N          65.1672   92.2778   15.7585 N.ar    1  UNL1       -0.2454
     23 N          62.3179   90.5002   13.6439 N.pl3   1  UNL1       -0.3077
     24 H          61.5261   91.0106   13.9296 H       1  UNL1        0.1492
     25 C          62.1676   89.3582   12.6831 C.ar    1  UNL1        0.1607
     26 N          62.9957   88.1077   12.6632 N.ar    1  UNL1       -0.2198
     27 C          62.5026   87.2429   11.5413 C.ar    1  UNL1        0.1667
     28 C          61.3697   87.9589   10.8677 C.ar    1  UNL1        0.0880
     29 BR         60.5821   87.4558    9.6943 Br      1  UNL1       -0.0403
     30 S          61.1625   89.2662   11.5732 S.2     1  UNL1       -0.0450
     31 C          63.0468   85.8981   11.1598 C.3     1  UNL1        0.4359
     32 F          63.5910   84.5534   10.7782 F       1  UNL1       -0.1644
     33 F          63.1338   85.5221   12.6092 F       1  UNL1       -0.1644
     34 F          62.9598   86.2742    9.7103 F       1  UNL1       -0.1644
     35 C          63.3146   90.2808   15.5036 C.3     1  UNL1        0.0543
     36 C          63.5284   88.8194   15.7654 C.ar    1  UNL1       -0.0199
     37 C          62.8089   88.1470   16.8968 C.ar    1  UNL1       -0.0042
     38 C          63.0227   86.6856   17.1586 C.ar    1  UNL1       -0.0003
     39 C          63.9561   85.8966   16.2889 C.ar    1  UNL1       -0.0000
     40 C          64.6757   86.5690   15.1575 C.ar    1  UNL1       -0.0003
     41 C          64.4618   88.0304   14.8957 C.ar    1  UNL1       -0.0042
@<TRIPOS>BOND
     1     2     3    1
     2     3     4   ar
     3     4     5   ar
     4     5     9    1
     5     9    10    1
     6    10    11    1
     7    10    12    1
     8    10    13    1
     9    13    14    1
    10    13    15    1
    11     5     6   ar
    12     6     7   ar
    13     7     1    1
    14     1    35    1
    15    35    36    1
    16    36    37   ar
    17    37    38   ar
    18    38    39   ar
    19    39    40   ar
    20    40    41   ar
    21     1    23    1
    22    23    25    1
    23    25    26   ar
    24    26    27   ar
    25    27    31    1
    26    31    32    1
    27    31    33    1
    28    31    34    1
    29    27    28   ar
    30    28    29    1
    31    28    30   ar
    32     1    16    1
    33    16    17   ar
    34    17    18   ar
    35    18    19   ar
    36    19    20    1
    37    19    21   ar
    38    21    22   ar
    39     7     8   ar
    40     8     3   ar
    41    41    36   ar
    42    30    25   ar
    43    22    16   ar
    44    23    24    1
@<TRIPOS>MOLECULE
*****
 41 44 0 0 0
SMALL
GASTEIGER

@<TRIPOS>ATOM
      1 C          62.2329   87.9828   11.7056 C.3     1  UNL1        0.1146
      2 F          65.4373   90.2243   15.1272 F       1  UNL1       -0.2041
      3 C          64.7468   90.2327   13.7956 C.ar    1  UNL1        0.1429
      4 C          64.9680   91.3702   12.8433 C.ar    1  UNL1        0.0667
      5 C          64.2775   91.3787   11.5117 C.ar    1  UNL1        0.1461
      6 C          63.3658   90.2495   11.1324 C.ar    1  UNL1        0.0349
      7 C          63.1446   89.1120   12.0848 C.ar    1  UNL1        0.0045
      8 C          63.8351   89.1036   13.4164 C.ar    1  UNL1        0.0275
      9 O          64.4988   92.5163   10.5593 O.3     1  UNL1       -0.4263
     10 C          65.8606   93.1316   10.4294 C.3     1  UNL1        0.4723
     11 F          66.4271   91.7968   10.0455 F       1  UNL1       -0.1579
     12 F          65.2941   94.4664   10.8133 F       1  UNL1       -0.1579
     13 C          67.2224   93.7469   10.2995 C.3     1  UNL1        0.4202
     14 F          67.3912   95.2309   10.4382 F       1  UNL1       -0.1876
     15 F          68.4154   92.8782   10.0309 F       1  UNL1       -0.1876
     16 C          61.0740   88.9340   11.6598 C.ar    1  UNL1        0.0792
     17 C          60.9671   89.9329   10.5458 C.ar    1  UNL1        0.0175
     18 C          59.8081   90.8841   10.5001 C.ar    1  UNL1        0.0142
     19 C          58.7561   90.8363   11.5682 C.ar    1  UNL1        0.0768
     20 CL         57.5971   91.7875   11.5224 Cl      1  UNL1       -0.0806
     21 C          58.8630   89.8374   12.6821 C.ar    1  UNL1        0.1098
     22 N          60.0219   88.8863   12.7279 N.ar    1  UNL1       -0.2454
     23 N          63.3918   87.0316   11.7514 N.pl3   1  UNL1       -0.3077
     24 H          64.2386   87.2657   11.3070 H       1  UNL1        0.1492
     25 C          63.2606   85.7238   12.4741 C.ar    1  UNL1        0.1607
     26 N          63.3076   84.3617   11.8478 N.ar    1  UNL1       -0.2198
     27 C          63.1355   83.3446   12.9367 C.ar    1  UNL1        0.1667
     28 C          62.9820   84.0781   14.2361 C.ar    1  UNL1        0.0880
     29 BR         62.7857   83.4512   15.5846 Br      1  UNL1       -0.0403
     30 S          63.0594   85.5486   13.9503 S.2     1  UNL1       -0.0450
     31 C          63.1195   81.8554   12.7578 C.3     1  UNL1        0.4359
     32 F          63.1037   80.3662   12.5789 F       1  UNL1       -0.1644
     33 F          61.6203   81.8658   12.8042 F       1  UNL1       -0.1644
     34 F          64.6188   81.8450   12.7114 F       1  UNL1       -0.1644
     35 C          61.3212   86.8537   11.3264 C.3     1  UNL1        0.0543
     36 C          61.1537   86.4770    9.8841 C.ar    1  UNL1       -0.0199
     37 C          62.2782   85.8119    9.1472 C.ar    1  UNL1       -0.0042
     38 C          62.1107   85.4351    7.7050 C.ar    1  UNL1       -0.0003
     39 C          60.8186   85.7235    6.9997 C.ar    1  UNL1       -0.0000
     40 C          59.6940   86.3886    7.7366 C.ar    1  UNL1       -0.0003
     41 C          59.8616   86.7653    9.1788 C.ar    1  UNL1       -0.0042
@<TRIPOS>BOND
     1     2     3    1
     2     3     4   ar
     3     4     5   ar
     4     5     9    1
     5     9    10    1
     6    10    11    1
     7    10    12    1
     8    10    13    1
     9    13    14    1
    10    13    15    1
    11     5     6   ar
    12     6     7   ar
    13     7     1    1
    14     1    35    1
    15    35    36    1
    16    36    37   ar
    17    37    38   ar
    18    38    39   ar
    19    39    40   ar
    20    40    41   ar
    21     1    23    1
    22    23    25    1
    23    25    26   ar
    24    26    27   ar
    25    27    31    1
    26    31    32    1
    27    31    33    1
    28    31    34    1
    29    27    28   ar
    30    28    29    1
    31    28    30   ar
    32     1    16    1
    33    16    17   ar
    34    17    18   ar
    35    18    19   ar
    36    19    20    1
    37    19    21   ar
    38    21    22   ar
    39     7     8   ar
    40     8     3   ar
    41    41    36   ar
    42    30    25   ar
    43    22    16   ar
    44    23    24    1
