@<TRIPOS>MOLECULE
*****
 31 33 0 0 0
SMALL
GASTEIGER

@<TRIPOS>ATOM
      1 C          62.3148   87.1364   11.7057 C.ar    1  UNL1        0.0824
      2 C          61.1153   87.6808   10.9882 C.ar    1  UNL1        0.0191
      3 C          60.8960   89.1626   10.9114 C.ar    1  UNL1        0.0015
      4 C          61.8761   90.1001   11.5522 C.ar    1  UNL1        0.0001
      5 C          63.0756   89.5557   12.2697 C.ar    1  UNL1        0.0015
      6 C          63.2949   88.0739   12.3465 C.ar    1  UNL1        0.0191
      7 C          62.9776   85.1625    9.1929 C.3     1  UNL1        0.0522
      8 C          62.8389   84.7472   10.6275 C.ar    1  UNL1        0.0625
      9 C          62.9804   83.3517   11.1590 C.ar    1  UNL1        0.0402
     10 C          62.7632   83.3965   12.6426 C.ar    1  UNL1        0.1553
     11 N          62.4875   84.8197   13.0279 N.ar    1  UNL1       -0.1608
     12 N          62.5342   85.6545   11.7826 N.ar    1  UNL1       -0.2336
     13 C          62.8131   82.2239   13.5768 C.2     1  UNL1        0.2623
     14 N          62.5624   82.4215   15.0424 N.am    1  UNL1       -0.3240
     15 O          63.1135   80.8538   13.0452 O.2     1  UNL1       -0.2687
     16 H          62.3652   83.3208   15.3913 H       1  UNL1        0.1453
     17 H          62.5952   81.6519   15.6556 H       1  UNL1        0.1453
     18 C          64.0557   90.4932   12.9104 C.ar    1  UNL1        0.0039
     19 C          64.6167   91.6425   12.1266 C.ar    1  UNL1       -0.0001
     20 C          65.5968   92.5799   12.7673 C.ar    1  UNL1        0.0038
     21 C          66.0159   92.3681   14.1919 C.ar    1  UNL1        0.0714
     22 C          65.4549   91.2189   14.9757 C.ar    1  UNL1        0.0077
     23 C          64.4748   90.2814   14.3350 C.ar    1  UNL1        0.0714
     24 C          66.9960   93.3056   14.8326 C.3     1  UNL1        0.4186
     25 F          67.9761   94.2431   15.4733 F       1  UNL1       -0.1659
     26 F          66.4748   94.4290   13.9863 F       1  UNL1       -0.1659
     27 F          67.5173   92.1822   15.6789 F       1  UNL1       -0.1659
     28 C          63.9138   89.1321   15.1189 C.3     1  UNL1        0.4186
     29 F          63.3529   87.9828   15.9027 F       1  UNL1       -0.1659
     30 F          62.7218   89.9649   15.4869 F       1  UNL1       -0.1659
     31 F          65.1058   88.2993   14.7509 F       1  UNL1       -0.1659
@<TRIPOS>BOND
     1     7     8    1
     2     8     9   ar
     3     9    10   ar
     4    10    13    1
     5    13    14   am
     6    13    15    2
     7    10    11   ar
     8    11    12   ar
     9    12     1    1
    10     1     2   ar
    11     2     3   ar
    12     3     4   ar
    13     4     5   ar
    14     5    18    1
    15    18    19   ar
    16    19    20   ar
    17    20    21   ar
    18    21    24    1
    19    24    25    1
    20    24    26    1
    21    24    27    1
    22    21    22   ar
    23    22    23   ar
    24    23    28    1
    25    28    29    1
    26    28    30    1
    27    28    31    1
    28     5     6   ar
    29    12     8   ar
    30     6     1   ar
    31    23    18   ar
    32    14    16    1
    33    14    17    1
@<TRIPOS>MOLECULE
*****
 31 33 0 0 0
SMALL
GASTEIGER

@<TRIPOS>ATOM
      1 C          63.7686   88.3183   15.5170 C.ar    1  UNL1        0.0824
      2 C          63.2775   89.0442   16.7343 C.ar    1  UNL1        0.0191
      3 C          63.3553   90.5408   16.7974 C.ar    1  UNL1        0.0015
      4 C          63.9243   91.3116   15.6433 C.ar    1  UNL1        0.0001
      5 C          64.4154   90.5857   14.4259 C.ar    1  UNL1        0.0015
      6 C          64.3376   89.0891   14.3628 C.ar    1  UNL1        0.0191
      7 C          62.6723   86.3530   17.8803 C.3     1  UNL1        0.0522
      8 C          63.1868   85.9183   16.5401 C.ar    1  UNL1        0.0625
      9 C          63.2878   84.5039   16.0509 C.ar    1  UNL1        0.0402
     10 C          63.8542   84.5331   14.6622 C.ar    1  UNL1        0.1553
     11 N          64.1032   85.9655   14.2932 N.ar    1  UNL1       -0.1608
     12 N          63.6908   86.8216   15.4538 N.ar    1  UNL1       -0.2336
     13 C          64.1241   83.3395   13.7948 C.2     1  UNL1        0.2623
     14 N          64.7978   83.5148   12.4661 N.am    1  UNL1       -0.3240
     15 O          63.7204   81.9705   14.2562 O.2     1  UNL1       -0.2687
     16 H          65.0627   84.4134   12.1633 H       1  UNL1        0.1453
     17 H          64.9749   82.7314   11.8968 H       1  UNL1        0.1453
     18 C          64.9844   91.3565   13.2718 C.ar    1  UNL1        0.0039
     19 C          64.2806   91.3522   11.9472 C.ar    1  UNL1       -0.0001
     20 C          64.8496   92.1230   10.7930 C.ar    1  UNL1        0.0038
     21 C          66.1224   92.8981   10.9634 C.ar    1  UNL1        0.0714
     22 C          66.8262   92.9024   12.2880 C.ar    1  UNL1        0.0077
     23 C          66.2572   92.1316   13.4422 C.ar    1  UNL1        0.0714
     24 C          66.6914   93.6689    9.8092 C.3     1  UNL1        0.4186
     25 F          67.2604   94.4397    8.6550 F       1  UNL1       -0.1659
     26 F          65.8023   94.8292   10.1458 F       1  UNL1       -0.1659
     27 F          67.5805   92.5086    9.4727 F       1  UNL1       -0.1659
     28 C          66.9611   92.1360   14.7668 C.3     1  UNL1        0.4186
     29 F          67.6650   92.1403   16.0913 F       1  UNL1       -0.1659
     30 F          66.3259   93.4533   15.1001 F       1  UNL1       -0.1659
     31 F          67.5964   90.8187   14.4335 F       1  UNL1       -0.1659
@<TRIPOS>BOND
     1     7     8    1
     2     8     9   ar
     3     9    10   ar
     4    10    13    1
     5    13    14   am
     6    13    15    2
     7    10    11   ar
     8    11    12   ar
     9    12     1    1
    10     1     2   ar
    11     2     3   ar
    12     3     4   ar
    13     4     5   ar
    14     5    18    1
    15    18    19   ar
    16    19    20   ar
    17    20    21   ar
    18    21    24    1
    19    24    25    1
    20    24    26    1
    21    24    27    1
    22    21    22   ar
    23    22    23   ar
    24    23    28    1
    25    28    29    1
    26    28    30    1
    27    28    31    1
    28     5     6   ar
    29    12     8   ar
    30     6     1   ar
    31    23    18   ar
    32    14    16    1
    33    14    17    1
@<TRIPOS>MOLECULE
*****
 31 33 0 0 0
SMALL
GASTEIGER

@<TRIPOS>ATOM
      1 C          62.7270   90.2637   11.3494 C.ar    1  UNL1        0.0824
      2 C          61.3332   90.7176   11.0311 C.ar    1  UNL1        0.0191
      3 C          60.2419   89.7074   10.8352 C.ar    1  UNL1        0.0015
      4 C          60.5444   88.2433   10.9576 C.ar    1  UNL1        0.0001
      5 C          61.9381   87.7894   11.2759 C.ar    1  UNL1        0.0015
      6 C          63.0294   88.7997   11.4718 C.ar    1  UNL1        0.0191
      7 C          64.3463   90.8240   14.1268 C.3     1  UNL1        0.0522
      8 C          64.5627   91.5315   12.8220 C.ar    1  UNL1        0.0625
      9 C          65.5614   92.6207   12.5646 C.ar    1  UNL1        0.0402
     10 C          65.4344   93.0364   11.1289 C.ar    1  UNL1        0.1553
     11 N          64.3571   92.2041   10.4990 N.ar    1  UNL1       -0.1608
     12 N          63.8184   91.2740   11.5454 N.ar    1  UNL1       -0.2336
     13 C          66.2426   94.0980   10.4436 C.2     1  UNL1        0.2623
     14 N          65.5674   95.3249    9.9062 N.am    1  UNL1       -0.3240
     15 O          67.7261   93.9326   10.2956 O.2     1  UNL1       -0.2687
     16 H          64.5937   95.4334   10.0034 H       1  UNL1        0.1453
     17 H          66.0979   96.0217    9.4564 H       1  UNL1        0.1453
     18 C          62.2406   86.3254   11.3983 C.ar    1  UNL1        0.0039
     19 C          62.6274   85.7480   12.7276 C.ar    1  UNL1       -0.0001
     20 C          62.9299   84.2839   12.8500 C.ar    1  UNL1        0.0038
     21 C          62.8454   83.3972   11.6431 C.ar    1  UNL1        0.0714
     22 C          62.4585   83.9745   10.3139 C.ar    1  UNL1        0.0077
     23 C          62.1561   85.4386   10.1915 C.ar    1  UNL1        0.0714
     24 C          63.1479   81.9331   11.7655 C.3     1  UNL1        0.4186
     25 F          63.4503   80.4690   11.8879 F       1  UNL1       -0.1659
     26 F          61.9258   81.7518   12.6163 F       1  UNL1       -0.1659
     27 F          64.3699   82.1144   10.9148 F       1  UNL1       -0.1659
     28 C          61.7692   86.0160    8.8621 C.3     1  UNL1        0.4186
     29 F          61.3824   86.5933    7.5329 F       1  UNL1       -0.1659
     30 F          60.3223   85.7835    9.1822 F       1  UNL1       -0.1659
     31 F          63.2161   86.2484    8.5420 F       1  UNL1       -0.1659
@<TRIPOS>BOND
     1     7     8    1
     2     8     9   ar
     3     9    10   ar
     4    10    13    1
     5    13    14   am
     6    13    15    2
     7    10    11   ar
     8    11    12   ar
     9    12     1    1
    10     1     2   ar
    11     2     3   ar
    12     3     4   ar
    13     4     5   ar
    14     5    18    1
    15    18    19   ar
    16    19    20   ar
    17    20    21   ar
    18    21    24    1
    19    24    25    1
    20    24    26    1
    21    24    27    1
    22    21    22   ar
    23    22    23   ar
    24    23    28    1
    25    28    29    1
    26    28    30    1
    27    28    31    1
    28     5     6   ar
    29    12     8   ar
    30     6     1   ar
    31    23    18   ar
    32    14    16    1
    33    14    17    1
@<TRIPOS>MOLECULE
*****
 31 33 0 0 0
SMALL
GASTEIGER

@<TRIPOS>ATOM
      1 C          63.2697   90.2498   12.0628 C.ar    1  UNL1        0.0824
      2 C          62.2488   90.8549   11.1455 C.ar    1  UNL1        0.0191
      3 C          61.3351   89.9689   10.3517 C.ar    1  UNL1        0.0015
      4 C          61.4422   88.4779   10.4753 C.ar    1  UNL1        0.0001
      5 C          62.4631   87.8728   11.3927 C.ar    1  UNL1        0.0015
      6 C          63.3769   88.7588   12.1864 C.ar    1  UNL1        0.0191
      7 C          65.4439   92.3527   10.8378 C.3     1  UNL1        0.0522
      8 C          65.1829   92.1023   12.2936 C.ar    1  UNL1        0.0625
      9 C          65.8753   92.7746   13.4418 C.ar    1  UNL1        0.0402
     10 C          65.3039   92.2236   14.7146 C.ar    1  UNL1        0.1553
     11 N          64.2583   91.2108   14.3529 N.ar    1  UNL1       -0.1608
     12 N          64.1835   91.1358   12.8566 N.ar    1  UNL1       -0.2336
     13 C          65.7073   92.6165   16.1049 C.2     1  UNL1        0.2623
     14 N          67.0783   93.1691   16.3601 N.am    1  UNL1       -0.3240
     15 O          64.7398   92.4566   17.2399 O.2     1  UNL1       -0.2687
     16 H          67.7133   93.2740   15.6152 H       1  UNL1        0.1453
     17 H          67.3430   93.4270   17.2726 H       1  UNL1        0.1453
     18 C          62.5703   86.3817   11.5163 C.ar    1  UNL1        0.0039
     19 C          63.0126   85.7663   12.8107 C.ar    1  UNL1       -0.0001
     20 C          63.1198   84.2753   12.9343 C.ar    1  UNL1        0.0038
     21 C          62.7846   83.3996   11.7635 C.ar    1  UNL1        0.0714
     22 C          62.3424   84.0150   10.4691 C.ar    1  UNL1        0.0077
     23 C          62.2352   85.5061   10.3455 C.ar    1  UNL1        0.0714
     24 C          62.8918   81.9086   11.8871 C.3     1  UNL1        0.4186
     25 F          62.9990   80.4175   12.0107 F       1  UNL1       -0.1659
     26 F          63.8991   81.8888   10.7758 F       1  UNL1       -0.1659
     27 F          61.8846   81.9283   12.9985 F       1  UNL1       -0.1659
     28 C          61.7929   86.1215    9.0509 C.3     1  UNL1        0.4186
     29 F          61.3506   86.7368    7.7565 F       1  UNL1       -0.1659
     30 F          60.3596   85.9435    9.4560 F       1  UNL1       -0.1659
     31 F          63.2261   86.2994    8.6459 F       1  UNL1       -0.1659
@<TRIPOS>BOND
     1     7     8    1
     2     8     9   ar
     3     9    10   ar
     4    10    13    1
     5    13    14   am
     6    13    15    2
     7    10    11   ar
     8    11    12   ar
     9    12     1    1
    10     1     2   ar
    11     2     3   ar
    12     3     4   ar
    13     4     5   ar
    14     5    18    1
    15    18    19   ar
    16    19    20   ar
    17    20    21   ar
    18    21    24    1
    19    24    25    1
    20    24    26    1
    21    24    27    1
    22    21    22   ar
    23    22    23   ar
    24    23    28    1
    25    28    29    1
    26    28    30    1
    27    28    31    1
    28     5     6   ar
    29    12     8   ar
    30     6     1   ar
    31    23    18   ar
    32    14    16    1
    33    14    17    1
@<TRIPOS>MOLECULE
*****
 31 33 0 0 0
SMALL
GASTEIGER

@<TRIPOS>ATOM
      1 C          63.6724   86.6798   15.2176 C.ar    1  UNL1        0.0824
      2 C          63.1198   86.9602   16.5836 C.ar    1  UNL1        0.0191
      3 C          63.0579   88.3698   17.0927 C.ar    1  UNL1        0.0015
      4 C          63.5486   89.4990   16.2357 C.ar    1  UNL1        0.0001
      5 C          64.1011   89.2185   14.8698 C.ar    1  UNL1        0.0015
      6 C          64.1630   87.8089   14.3607 C.ar    1  UNL1        0.0191
      7 C          66.3891   84.9676   14.6367 C.3     1  UNL1        0.0522
      8 C          64.9830   84.4832   14.4415 C.ar    1  UNL1        0.0625
      9 C          64.5788   83.1267   13.9449 C.ar    1  UNL1        0.0402
     10 C          63.0802   83.0753   13.9050 C.ar    1  UNL1        0.1553
     11 N          62.5583   84.4000   14.3769 N.ar    1  UNL1       -0.1608
     12 N          63.7343   85.2702   14.7084 N.ar    1  UNL1       -0.2336
     13 C          62.2494   81.9047   13.4697 C.2     1  UNL1        0.2623
     14 N          61.3008   81.2579   14.4350 N.am    1  UNL1       -0.3240
     15 O          62.3672   81.3810   12.0690 O.2     1  UNL1       -0.2687
     16 H          61.2235   81.6016   15.3543 H       1  UNL1        0.1453
     17 H          60.7555   80.4896   14.1492 H       1  UNL1        0.1453
     18 C          64.5918   90.3477   14.0128 C.ar    1  UNL1        0.0039
     19 C          65.7879   91.1468   14.4379 C.ar    1  UNL1       -0.0001
     20 C          66.2785   92.2759   13.5810 C.ar    1  UNL1        0.0038
     21 C          65.5731   92.6059   12.2990 C.ar    1  UNL1        0.0714
     22 C          64.3770   91.8068   11.8740 C.ar    1  UNL1        0.0077
     23 C          63.8864   90.6777   12.7309 C.ar    1  UNL1        0.0714
     24 C          66.0638   93.7351   11.4421 C.3     1  UNL1        0.4186
     25 F          66.5544   94.8642   10.5852 F       1  UNL1       -0.1659
     26 F          66.2700   94.5754   12.6674 F       1  UNL1       -0.1659
     27 F          65.8576   92.8948   10.2168 F       1  UNL1       -0.1659
     28 C          62.6902   89.8785   12.3058 C.3     1  UNL1        0.4186
     29 F          61.4941   89.0794   11.8807 F       1  UNL1       -0.1659
     30 F          61.9854   90.2587   13.5741 F       1  UNL1       -0.1659
     31 F          63.3950   89.4983   11.0375 F       1  UNL1       -0.1659
@<TRIPOS>BOND
     1     7     8    1
     2     8     9   ar
     3     9    10   ar
     4    10    13    1
     5    13    14   am
     6    13    15    2
     7    10    11   ar
     8    11    12   ar
     9    12     1    1
    10     1     2   ar
    11     2     3   ar
    12     3     4   ar
    13     4     5   ar
    14     5    18    1
    15    18    19   ar
    16    19    20   ar
    17    20    21   ar
    18    21    24    1
    19    24    25    1
    20    24    26    1
    21    24    27    1
    22    21    22   ar
    23    22    23   ar
    24    23    28    1
    25    28    29    1
    26    28    30    1
    27    28    31    1
    28     5     6   ar
    29    12     8   ar
    30     6     1   ar
    31    23    18   ar
    32    14    16    1
    33    14    17    1
@<TRIPOS>MOLECULE
*****
 31 33 0 0 0
SMALL
GASTEIGER

@<TRIPOS>ATOM
      1 C          62.0035   86.7357   11.4112 C.ar    1  UNL1        0.0824
      2 C          60.6602   86.9051   10.7655 C.ar    1  UNL1        0.0191
      3 C          60.2113   88.2631   10.3136 C.ar    1  UNL1        0.0015
      4 C          61.1057   89.4516   10.5073 C.ar    1  UNL1        0.0001
      5 C          62.4489   89.2822   11.1529 C.ar    1  UNL1        0.0015
      6 C          62.8978   87.9242   11.6048 C.ar    1  UNL1        0.0191
      7 C          63.3086   84.4187    9.5195 C.3     1  UNL1        0.0522
      8 C          63.0523   84.3127   10.9936 C.ar    1  UNL1        0.0625
      9 C          63.3510   83.1230   11.8571 C.ar    1  UNL1        0.0402
     10 C          62.9357   83.4527   13.2603 C.ar    1  UNL1        0.1553
     11 N          62.3804   84.8461   13.2640 N.ar    1  UNL1       -0.1608
     12 N          62.4525   85.3776   11.8631 N.ar    1  UNL1       -0.2336
     13 C          63.0548   82.5479   14.4507 C.2     1  UNL1        0.2623
     14 N          62.0695   81.4342   14.6478 N.am    1  UNL1       -0.3240
     15 O          64.1592   82.7568   15.4439 O.2     1  UNL1       -0.2687
     16 H          61.3446   81.2971   13.9959 H       1  UNL1        0.1453
     17 H          62.1476   80.8403   15.4291 H       1  UNL1        0.1453
     18 C          63.3433   90.4707   11.3466 C.ar    1  UNL1        0.0039
     19 C          63.6743   91.3578   10.1832 C.ar    1  UNL1       -0.0001
     20 C          64.5686   92.5463   10.3769 C.ar    1  UNL1        0.0038
     21 C          65.1320   92.8478   11.7339 C.ar    1  UNL1        0.0714
     22 C          64.8010   91.9607   12.8973 C.ar    1  UNL1        0.0077
     23 C          63.9067   90.7722   12.7036 C.ar    1  UNL1        0.0714
     24 C          66.0264   94.0363   11.9276 C.3     1  UNL1        0.4186
     25 F          66.9207   95.2248   12.1213 F       1  UNL1       -0.1659
     26 F          66.1641   93.6957   13.3819 F       1  UNL1       -0.1659
     27 F          65.8886   94.3769   10.4733 F       1  UNL1       -0.1659
     28 C          63.5757   89.8851   13.8671 C.3     1  UNL1        0.4186
     29 F          63.2447   88.9981   15.0305 F       1  UNL1       -0.1659
     30 F          65.0294   89.5514   14.0263 F       1  UNL1       -0.1659
     31 F          62.1220   90.2189   13.7080 F       1  UNL1       -0.1659
@<TRIPOS>BOND
     1     7     8    1
     2     8     9   ar
     3     9    10   ar
     4    10    13    1
     5    13    14   am
     6    13    15    2
     7    10    11   ar
     8    11    12   ar
     9    12     1    1
    10     1     2   ar
    11     2     3   ar
    12     3     4   ar
    13     4     5   ar
    14     5    18    1
    15    18    19   ar
    16    19    20   ar
    17    20    21   ar
    18    21    24    1
    19    24    25    1
    20    24    26    1
    21    24    27    1
    22    21    22   ar
    23    22    23   ar
    24    23    28    1
    25    28    29    1
    26    28    30    1
    27    28    31    1
    28     5     6   ar
    29    12     8   ar
    30     6     1   ar
    31    23    18   ar
    32    14    16    1
    33    14    17    1
@<TRIPOS>MOLECULE
*****
 31 33 0 0 0
SMALL
GASTEIGER

@<TRIPOS>ATOM
      1 C          63.7780   88.1945   15.4643 C.ar    1  UNL1        0.0824
      2 C          63.2825   88.9289   16.6746 C.ar    1  UNL1        0.0191
      3 C          63.3793   90.4245   16.7361 C.ar    1  UNL1        0.0015
      4 C          63.9716   91.1856   15.5873 C.ar    1  UNL1        0.0001
      5 C          64.4672   90.4512   14.3769 C.ar    1  UNL1        0.0015
      6 C          64.3704   88.9556   14.3154 C.ar    1  UNL1        0.0191
      7 C          62.6197   86.2488   17.8143 C.3     1  UNL1        0.0522
      8 C          63.1488   85.8046   16.4829 C.ar    1  UNL1        0.0625
      9 C          63.2384   84.3880   15.9979 C.ar    1  UNL1        0.0402
     10 C          63.8262   84.4067   14.6179 C.ar    1  UNL1        0.1553
     11 N          64.0999   85.8349   14.2501 N.ar    1  UNL1       -0.1608
     12 N          63.6812   86.6988   15.4027 N.ar    1  UNL1       -0.2336
     13 C          64.0934   83.2078   13.7570 C.2     1  UNL1        0.2623
     14 N          64.7489   83.3767   12.4184 N.am    1  UNL1       -0.3240
     15 O          63.7050   81.8400   14.2347 O.2     1  UNL1       -0.2687
     16 H          65.0038   84.2745   12.1049 H       1  UNL1        0.1453
     17 H          64.9243   82.5898   11.8534 H       1  UNL1        0.1453
     18 C          65.0595   91.2123   13.2281 C.ar    1  UNL1        0.0039
     19 C          66.4134   91.8434   13.3650 C.ar    1  UNL1       -0.0001
     20 C          67.0057   92.6045   12.2162 C.ar    1  UNL1        0.0038
     21 C          66.2442   92.7346   10.9305 C.ar    1  UNL1        0.0714
     22 C          64.8904   92.1035   10.7936 C.ar    1  UNL1        0.0077
     23 C          64.2980   91.3424   11.9424 C.ar    1  UNL1        0.0714
     24 C          66.8366   93.4957    9.7816 C.3     1  UNL1        0.4186
     25 F          67.4289   94.2568    8.6328 F       1  UNL1       -0.1659
     26 F          65.8831   94.6249   10.0382 F       1  UNL1       -0.1659
     27 F          67.7900   92.3665    9.5251 F       1  UNL1       -0.1659
     28 C          62.9441   90.7113   11.8054 C.3     1  UNL1        0.4186
     29 F          61.5902   90.0802   11.6685 F       1  UNL1       -0.1659
     30 F          62.3521   91.7971   12.6542 F       1  UNL1       -0.1659
     31 F          63.5361   89.6255   10.9567 F       1  UNL1       -0.1659
@<TRIPOS>BOND
     1     7     8    1
     2     8     9   ar
     3     9    10   ar
     4    10    13    1
     5    13    14   am
     6    13    15    2
     7    10    11   ar
     8    11    12   ar
     9    12     1    1
    10     1     2   ar
    11     2     3   ar
    12     3     4   ar
    13     4     5   ar
    14     5    18    1
    15    18    19   ar
    16    19    20   ar
    17    20    21   ar
    18    21    24    1
    19    24    25    1
    20    24    26    1
    21    24    27    1
    22    21    22   ar
    23    22    23   ar
    24    23    28    1
    25    28    29    1
    26    28    30    1
    27    28    31    1
    28     5     6   ar
    29    12     8   ar
    30     6     1   ar
    31    23    18   ar
    32    14    16    1
    33    14    17    1
@<TRIPOS>MOLECULE
*****
 31 33 0 0 0
SMALL
GASTEIGER

@<TRIPOS>ATOM
      1 C          63.4703   89.3874   12.4967 C.ar    1  UNL1        0.0824
      2 C          62.7398   89.8876   11.2860 C.ar    1  UNL1        0.0191
      3 C          61.9949   88.9255   10.4088 C.ar    1  UNL1        0.0015
      4 C          61.9806   87.4632   10.7423 C.ar    1  UNL1        0.0001
      5 C          62.7112   86.9629   11.9531 C.ar    1  UNL1        0.0015
      6 C          63.4561   87.9250   12.8303 C.ar    1  UNL1        0.0191
      7 C          63.3464   89.5025   15.7557 C.3     1  UNL1        0.0522
      8 C          64.1583   90.4024   14.8719 C.ar    1  UNL1        0.0625
      9 C          65.0557   91.5132   15.3310 C.ar    1  UNL1        0.0402
     10 C          65.6673   92.1469   14.1167 C.ar    1  UNL1        0.1553
     11 N          65.1479   91.4276   12.9072 N.ar    1  UNL1       -0.1608
     12 N          64.2152   90.3495   13.3740 N.ar    1  UNL1       -0.2336
     13 C          66.6294   93.2976   14.1126 C.2     1  UNL1        0.2623
     14 N          67.5790   93.4854   15.2586 N.am    1  UNL1       -0.3240
     15 O          66.6420   94.2606   12.9626 O.2     1  UNL1       -0.2687
     16 H          67.5707   92.8534   16.0134 H       1  UNL1        0.1453
     17 H          68.2104   94.2407   15.2559 H       1  UNL1        0.1453
     18 C          62.6969   85.5005   12.2866 C.ar    1  UNL1        0.0039
     19 C          62.7024   85.0581   13.7199 C.ar    1  UNL1       -0.0001
     20 C          62.6881   83.5957   14.0534 C.ar    1  UNL1        0.0038
     21 C          62.6684   82.5758   12.9538 C.ar    1  UNL1        0.0714
     22 C          62.6630   83.0182   11.5205 C.ar    1  UNL1        0.0077
     23 C          62.6772   84.4806   11.1870 C.ar    1  UNL1        0.0714
     24 C          62.6541   81.1134   13.2873 C.3     1  UNL1        0.4186
     25 F          62.6399   79.6510   13.6209 F       1  UNL1       -0.1659
     26 F          61.1755   81.1831   13.5296 F       1  UNL1       -0.1659
     27 F          64.1328   81.0437   13.0450 F       1  UNL1       -0.1659
     28 C          62.6718   84.9230    9.7537 C.3     1  UNL1        0.4186
     29 F          62.6664   85.3654    8.3204 F       1  UNL1       -0.1659
     30 F          61.2069   85.2297    9.8538 F       1  UNL1       -0.1659
     31 F          64.1367   84.6164    9.6535 F       1  UNL1       -0.1659
@<TRIPOS>BOND
     1     7     8    1
     2     8     9   ar
     3     9    10   ar
     4    10    13    1
     5    13    14   am
     6    13    15    2
     7    10    11   ar
     8    11    12   ar
     9    12     1    1
    10     1     2   ar
    11     2     3   ar
    12     3     4   ar
    13     4     5   ar
    14     5    18    1
    15    18    19   ar
    16    19    20   ar
    17    20    21   ar
    18    21    24    1
    19    24    25    1
    20    24    26    1
    21    24    27    1
    22    21    22   ar
    23    22    23   ar
    24    23    28    1
    25    28    29    1
    26    28    30    1
    27    28    31    1
    28     5     6   ar
    29    12     8   ar
    30     6     1   ar
    31    23    18   ar
    32    14    16    1
    33    14    17    1
@<TRIPOS>MOLECULE
*****
 31 33 0 0 0
SMALL
GASTEIGER

@<TRIPOS>ATOM
      1 C          62.5552   86.4953   12.0650 C.ar    1  UNL1        0.0824
      2 C          61.3209   86.8134   11.2743 C.ar    1  UNL1        0.0191
      3 C          60.9554   88.2415   10.9967 C.ar    1  UNL1        0.0015
      4 C          61.8242   89.3514   11.5099 C.ar    1  UNL1        0.0001
      5 C          63.0584   89.0332   12.3006 C.ar    1  UNL1        0.0015
      6 C          63.4240   87.6052   12.5782 C.ar    1  UNL1        0.0191
      7 C          64.3722   85.4300   14.5577 C.3     1  UNL1        0.0522
      8 C          63.7559   84.5776   13.4883 C.ar    1  UNL1        0.0625
      9 C          63.8667   83.0858   13.3769 C.ar    1  UNL1        0.0402
     10 C          63.0999   82.6535   12.1623 C.ar    1  UNL1        0.1553
     11 N          62.5153   83.8780   11.5231 N.ar    1  UNL1       -0.1608
     12 N          62.9208   85.0672   12.3426 N.ar    1  UNL1       -0.2336
     13 C          62.9449   81.2441   11.6730 C.2     1  UNL1        0.2623
     14 N          63.1973   80.9189   10.2305 N.am    1  UNL1       -0.3240
     15 O          62.5376   80.1598   12.6260 O.2     1  UNL1       -0.2687
     16 H          63.4647   81.6306    9.6050 H       1  UNL1        0.1453
     17 H          63.0956   79.9939    9.9093 H       1  UNL1        0.1453
     18 C          63.9272   90.1431   12.8138 C.ar    1  UNL1        0.0039
     19 C          64.3709   91.2372   11.8886 C.ar    1  UNL1       -0.0001
     20 C          65.2397   92.3471   12.4018 C.ar    1  UNL1        0.0038
     21 C          65.6647   92.3629   13.8402 C.ar    1  UNL1        0.0714
     22 C          65.2211   91.2688   14.7654 C.ar    1  UNL1        0.0077
     23 C          64.3523   90.1589   14.2522 C.ar    1  UNL1        0.0714
     24 C          66.5335   93.4728   14.3534 C.3     1  UNL1        0.4186
     25 F          67.4023   94.5827   14.8666 F       1  UNL1       -0.1659
     26 F          66.4207   92.9188   15.7427 F       1  UNL1       -0.1659
     27 F          66.6464   94.0269   12.9640 F       1  UNL1       -0.1659
     28 C          63.9086   89.0648   15.1775 C.3     1  UNL1        0.4186
     29 F          63.4649   87.9707   16.1027 F       1  UNL1       -0.1659
     30 F          65.1674   88.3044   14.8820 F       1  UNL1       -0.1659
     31 F          62.6499   89.8252   15.4730 F       1  UNL1       -0.1659
@<TRIPOS>BOND
     1     7     8    1
     2     8     9   ar
     3     9    10   ar
     4    10    13    1
     5    13    14   am
     6    13    15    2
     7    10    11   ar
     8    11    12   ar
     9    12     1    1
    10     1     2   ar
    11     2     3   ar
    12     3     4   ar
    13     4     5   ar
    14     5    18    1
    15    18    19   ar
    16    19    20   ar
    17    20    21   ar
    18    21    24    1
    19    24    25    1
    20    24    26    1
    21    24    27    1
    22    21    22   ar
    23    22    23   ar
    24    23    28    1
    25    28    29    1
    26    28    30    1
    27    28    31    1
    28     5     6   ar
    29    12     8   ar
    30     6     1   ar
    31    23    18   ar
    32    14    16    1
    33    14    17    1
