@<TRIPOS>MOLECULE
*****
 35 39 0 0 0
SMALL
GASTEIGER

@<TRIPOS>ATOM
      1 C          64.0912   90.5040   15.9518 C.2     1  UNL1        0.2553
      2 O          63.5547   91.0052   17.2598 O.2     1  UNL1       -0.2720
      3 N          63.8435   89.0849   15.5339 N.am    1  UNL1       -0.2773
      4 C          63.0593   88.1669   16.4240 C.3     1  UNL1        0.0949
      5 C          62.8115   86.7478   16.0061 C.3     1  UNL1        0.0375
      6 C          63.3480   86.2466   14.6980 C.3     1  UNL1        0.0615
      7 C          64.1323   87.1645   13.8080 C.3     1  UNL1        0.0375
      8 C          64.3800   88.5837   14.2259 C.3     1  UNL1        0.0949
      9 N          63.1003   84.8274   14.2801 N.3     1  UNL1       -0.2664
     10 C          62.3535   83.7934   15.0695 C.3     1  UNL1        0.0991
     11 C          62.3475   82.5200   14.2767 C.ar    1  UNL1       -0.0086
     12 C          61.7615   81.1675   14.5544 C.ar    1  UNL1       -0.0009
     13 C          61.9185   80.0621   13.5528 C.ar    1  UNL1        0.0293
     14 C          62.6616   80.3091   12.2735 C.ar    1  UNL1        0.1399
     15 F          62.8186   79.2036   11.2718 F       1  UNL1       -0.2042
     16 C          63.2476   81.6616   11.9957 C.ar    1  UNL1        0.0265
     17 C          63.0906   82.7671   12.9973 C.ar    1  UNL1       -0.0066
     18 C          63.5559   84.1931   12.9995 C.3     1  UNL1        0.0992
     19 N          64.9412   92.3582   12.2123 N.3     1  UNL1       -0.2688
     20 C          65.9475   92.8778   13.1959 C.3     1  UNL1        0.0756
     21 C          65.9146   92.4097   14.6206 C.3     1  UNL1        0.0590
     22 C          64.8755   91.4220   15.0617 C.3     1  UNL1        0.2042
     23 F          65.6094   91.6228   16.3544 F       1  UNL1       -0.2306
     24 C          63.8692   90.9024   14.0781 C.3     1  UNL1        0.0590
     25 C          63.9020   91.3705   12.6535 C.3     1  UNL1        0.0756
     26 C          64.9740   92.8264   10.7876 C.3     1  UNL1        0.0993
     27 N          67.8655   96.5451    8.5944 N.pl3   1  UNL1       -0.3426
     28 C          67.7136   95.1334    9.0783 C.ar    1  UNL1        0.1251
     29 C          66.4197   94.6857    9.6910 C.ar    1  UNL1        0.0310
     30 C          66.2679   93.2740   10.1749 C.ar    1  UNL1       -0.0018
     31 C          67.4099   92.3101   10.0460 C.ar    1  UNL1        0.0179
     32 C          68.7038   92.7578    9.4332 C.ar    1  UNL1        0.1000
     33 N          68.8556   94.1695    8.9494 N.ar    1  UNL1       -0.2296
     34 H          67.1160   97.1778    8.6790 H       1  UNL1        0.1437
     35 H          68.7147   96.8389    8.1922 H       1  UNL1        0.1437
@<TRIPOS>BOND
     1    27    28    1
     2    28    29   ar
     3    29    30   ar
     4    30    26    1
     5    26    19    1
     6    19    20    1
     7    20    21    1
     8    21    22    1
     9    22    23    1
    10    22     1    1
    11     1     2    2
    12     1     3   am
    13     3     4    1
    14     4     5    1
    15     5     6    1
    16     6     9    1
    17     9    10    1
    18    10    11    1
    19    11    12   ar
    20    12    13   ar
    21    13    14   ar
    22    14    15    1
    23    14    16   ar
    24    16    17   ar
    25    17    18    1
    26     6     7    1
    27     7     8    1
    28    22    24    1
    29    24    25    1
    30    30    31   ar
    31    31    32   ar
    32    32    33   ar
    33    33    28   ar
    34    25    19    1
    35     8     3    1
    36    18     9    1
    37    17    11   ar
    38    27    34    1
    39    27    35    1
@<TRIPOS>MOLECULE
*****
 35 39 0 0 0
SMALL
GASTEIGER

@<TRIPOS>ATOM
      1 C          63.9364   89.3179   14.6092 C.2     1  UNL1        0.2553
      2 O          64.1286   89.6552   16.0580 O.2     1  UNL1       -0.2720
      3 N          63.7504   87.8898   14.1898 N.am    1  UNL1       -0.2773
      4 C          63.7567   86.7989   15.2192 C.3     1  UNL1        0.0949
      5 C          63.5708   85.3708   14.7998 C.3     1  UNL1        0.0375
      6 C          63.3785   85.0336   13.3510 C.3     1  UNL1        0.0615
      7 C          63.3723   86.1245   12.3215 C.3     1  UNL1        0.0375
      8 C          63.5582   87.5526   12.7409 C.3     1  UNL1        0.0949
      9 N          63.1926   83.6055   12.9316 N.3     1  UNL1       -0.2664
     10 C          62.8093   82.4659   13.8285 C.3     1  UNL1        0.0991
     11 C          62.7371   81.2223   12.9928 C.ar    1  UNL1       -0.0086
     12 C          62.4067   79.8001   13.3363 C.ar    1  UNL1       -0.0009
     13 C          62.4150   78.7488   12.2664 C.ar    1  UNL1        0.0293
     14 C          62.7537   79.1198   10.8531 C.ar    1  UNL1        0.1399
     15 F          62.7620   78.0684    9.7831 F       1  UNL1       -0.2042
     16 C          63.0841   80.5420   10.5096 C.ar    1  UNL1        0.0265
     17 C          63.0758   81.5933   11.5795 C.ar    1  UNL1       -0.0066
     18 C          63.3573   83.0661   11.5416 C.3     1  UNL1        0.0992
     19 N          65.5524   92.7903   12.7448 N.3     1  UNL1       -0.2688
     20 C          64.3011   92.4358   11.9973 C.3     1  UNL1        0.0756
     21 C          63.4901   91.2451   12.4148 C.3     1  UNL1        0.0590
     22 C          63.9301   90.4088   13.5797 C.3     1  UNL1        0.2042
     23 F          62.6811   89.6756   13.1897 F       1  UNL1       -0.2306
     24 C          65.1814   90.7634   14.3271 C.3     1  UNL1        0.0590
     25 C          65.9925   91.9540   13.9097 C.3     1  UNL1        0.0756
     26 C          66.3636   93.9809   12.3274 C.3     1  UNL1        0.0993
     27 N          67.6325   96.7174    8.0963 N.pl3   1  UNL1       -0.3426
     28 C          67.5839   95.4112    8.8324 C.ar    1  UNL1        0.1251
     29 C          66.9980   95.3491   10.2118 C.ar    1  UNL1        0.0310
     30 C          66.9494   94.0430   10.9479 C.ar    1  UNL1       -0.0018
     31 C          67.4868   92.7992   10.3045 C.ar    1  UNL1        0.0179
     32 C          68.0726   92.8613    8.9251 C.ar    1  UNL1        0.1000
     33 N          68.1212   94.1674    8.1890 N.ar    1  UNL1       -0.2296
     34 H          67.2798   97.5338    8.5185 H       1  UNL1        0.1437
     35 H          68.0170   96.7581    7.1909 H       1  UNL1        0.1437
@<TRIPOS>BOND
     1    27    28    1
     2    28    29   ar
     3    29    30   ar
     4    30    26    1
     5    26    19    1
     6    19    20    1
     7    20    21    1
     8    21    22    1
     9    22    23    1
    10    22     1    1
    11     1     2    2
    12     1     3   am
    13     3     4    1
    14     4     5    1
    15     5     6    1
    16     6     9    1
    17     9    10    1
    18    10    11    1
    19    11    12   ar
    20    12    13   ar
    21    13    14   ar
    22    14    15    1
    23    14    16   ar
    24    16    17   ar
    25    17    18    1
    26     6     7    1
    27     7     8    1
    28    22    24    1
    29    24    25    1
    30    30    31   ar
    31    31    32   ar
    32    32    33   ar
    33    33    28   ar
    34    25    19    1
    35     8     3    1
    36    18     9    1
    37    17    11   ar
    38    27    34    1
    39    27    35    1
@<TRIPOS>MOLECULE
*****
 35 39 0 0 0
SMALL
GASTEIGER

@<TRIPOS>ATOM
      1 C          62.9695   87.5617   17.0511 C.2     1  UNL1        0.2553
      2 O          62.8140   87.8635   18.5121 O.2     1  UNL1       -0.2720
      3 N          63.4602   88.6250   16.1137 N.am    1  UNL1       -0.2773
      4 C          63.7953   89.9900   16.6373 C.3     1  UNL1        0.0949
      5 C          64.2860   91.0533   15.6999 C.3     1  UNL1        0.0375
      6 C          64.4415   90.7515   14.2388 C.3     1  UNL1        0.0615
      7 C          64.1063   89.3864   13.7152 C.3     1  UNL1        0.0375
      8 C          63.6157   88.3232   14.6526 C.3     1  UNL1        0.0949
      9 N          64.9321   91.8147   13.3014 N.3     1  UNL1       -0.2664
     10 C          65.5963   93.1003   13.6964 C.3     1  UNL1        0.0991
     11 C          65.9195   93.8592   12.4435 C.ar    1  UNL1       -0.0086
     12 C          66.5766   95.1883   12.2164 C.ar    1  UNL1       -0.0009
     13 C          66.7693   95.7008   10.8199 C.ar    1  UNL1        0.0293
     14 C          66.3048   94.8841    9.6505 C.ar    1  UNL1        0.1399
     15 F          66.4975   95.3967    8.2540 F       1  UNL1       -0.2042
     16 C          65.6476   93.5551    9.8777 C.ar    1  UNL1        0.0265
     17 C          65.4549   93.0426   11.2742 C.ar    1  UNL1       -0.0066
     18 C          64.8448   91.7791   11.8044 C.3     1  UNL1        0.0992
     19 N          63.9378   83.8929   15.1155 N.3     1  UNL1       -0.2688
     20 C          62.4876   83.8185   15.4917 C.3     1  UNL1        0.0756
     21 C          61.8360   84.9704   16.1976 C.3     1  UNL1        0.0590
     22 C          62.6343   86.1967   16.5275 C.3     1  UNL1        0.2042
     23 F          61.3006   86.5963   17.0854 F       1  UNL1       -0.2306
     24 C          64.0845   86.2710   16.1513 C.3     1  UNL1        0.0590
     25 C          64.7362   85.1192   15.4454 C.3     1  UNL1        0.0756
     26 C          64.5896   82.7411   14.4096 C.3     1  UNL1        0.0993
     27 N          63.9446   83.7082    9.3451 N.pl3   1  UNL1       -0.3426
     28 C          63.7758   82.7983   10.5257 C.ar    1  UNL1        0.1251
     29 C          64.2671   83.2246   11.8773 C.ar    1  UNL1        0.0310
     30 C          64.0983   82.3148   13.0580 C.ar    1  UNL1       -0.0018
     31 C          63.4382   80.9787   12.8868 C.ar    1  UNL1        0.0179
     32 C          62.9470   80.5525   11.5352 C.ar    1  UNL1        0.1000
     33 N          63.1158   81.4623   10.3546 N.ar    1  UNL1       -0.2296
     34 H          64.3778   84.5851    9.4574 H       1  UNL1        0.1437
     35 H          63.6222   83.4284    8.4580 H       1  UNL1        0.1437
@<TRIPOS>BOND
     1    27    28    1
     2    28    29   ar
     3    29    30   ar
     4    30    26    1
     5    26    19    1
     6    19    20    1
     7    20    21    1
     8    21    22    1
     9    22    23    1
    10    22     1    1
    11     1     2    2
    12     1     3   am
    13     3     4    1
    14     4     5    1
    15     5     6    1
    16     6     9    1
    17     9    10    1
    18    10    11    1
    19    11    12   ar
    20    12    13   ar
    21    13    14   ar
    22    14    15    1
    23    14    16   ar
    24    16    17   ar
    25    17    18    1
    26     6     7    1
    27     7     8    1
    28    22    24    1
    29    24    25    1
    30    30    31   ar
    31    31    32   ar
    32    32    33   ar
    33    33    28   ar
    34    25    19    1
    35     8     3    1
    36    18     9    1
    37    17    11   ar
    38    27    34    1
    39    27    35    1
@<TRIPOS>MOLECULE
*****
 35 39 0 0 0
SMALL
GASTEIGER

@<TRIPOS>ATOM
      1 C          63.0906   86.3310   16.7418 C.2     1  UNL1        0.2553
      2 O          62.2147   86.4777   17.9507 O.2     1  UNL1       -0.2720
      3 N          63.5207   87.5465   15.9754 N.am    1  UNL1       -0.2773
      4 C          63.0751   88.9087   16.4178 C.3     1  UNL1        0.0949
      5 C          63.5052   90.1243   15.6514 C.3     1  UNL1        0.0375
      6 C          64.3811   89.9776   14.4425 C.3     1  UNL1        0.0615
      7 C          64.8267   88.6154   14.0001 C.3     1  UNL1        0.0375
      8 C          64.3966   87.3999   14.7665 C.3     1  UNL1        0.0949
      9 N          64.8113   91.1932   13.6761 N.3     1  UNL1       -0.2664
     10 C          65.6179   92.3365   14.2165 C.3     1  UNL1        0.0991
     11 C          65.8155   93.3288   13.1091 C.ar    1  UNL1       -0.0086
     12 C          66.5303   94.6464   13.0578 C.ar    1  UNL1       -0.0009
     13 C          66.5606   95.4341   11.7816 C.ar    1  UNL1        0.0293
     14 C          65.8760   94.9040   10.5567 C.ar    1  UNL1        0.1399
     15 F          65.9063   95.6917    9.2805 F       1  UNL1       -0.2042
     16 C          65.1612   93.5863   10.6080 C.ar    1  UNL1        0.0265
     17 C          65.1310   92.7987   11.8842 C.ar    1  UNL1       -0.0066
     18 C          64.5103   91.4788   12.2346 C.3     1  UNL1        0.0992
     19 N          62.4892   82.5738   14.8270 N.3     1  UNL1       -0.2688
     20 C          63.8918   82.5732   15.3589 C.3     1  UNL1        0.0756
     21 C          64.4152   83.7707   16.0951 C.3     1  UNL1        0.0590
     22 C          63.5362   84.9688   16.2994 C.3     1  UNL1        0.2042
     23 F          64.7840   85.4412   16.9849 F       1  UNL1       -0.2306
     24 C          62.1337   84.9694   15.7675 C.3     1  UNL1        0.0590
     25 C          61.6102   83.7720   15.0313 C.3     1  UNL1        0.0756
     26 C          61.9657   81.3764   14.0908 C.3     1  UNL1        0.0993
     27 N          62.7485   78.0243   10.1984 N.pl3   1  UNL1       -0.3426
     28 C          62.8187   79.4193   10.7454 C.ar    1  UNL1        0.1251
     29 C          62.3571   79.7003   12.1446 C.ar    1  UNL1        0.0310
     30 C          62.4273   81.0953   12.6916 C.ar    1  UNL1       -0.0018
     31 C          62.9591   82.2092   11.8392 C.ar    1  UNL1        0.0179
     32 C          63.4207   81.9281   10.4399 C.ar    1  UNL1        0.1000
     33 N          63.3505   80.5331    9.8930 N.ar    1  UNL1       -0.2296
     34 H          62.3995   77.2932   10.7578 H       1  UNL1        0.1437
     35 H          63.0515   77.8398    9.2800 H       1  UNL1        0.1437
@<TRIPOS>BOND
     1    27    28    1
     2    28    29   ar
     3    29    30   ar
     4    30    26    1
     5    26    19    1
     6    19    20    1
     7    20    21    1
     8    21    22    1
     9    22    23    1
    10    22     1    1
    11     1     2    2
    12     1     3   am
    13     3     4    1
    14     4     5    1
    15     5     6    1
    16     6     9    1
    17     9    10    1
    18    10    11    1
    19    11    12   ar
    20    12    13   ar
    21    13    14   ar
    22    14    15    1
    23    14    16   ar
    24    16    17   ar
    25    17    18    1
    26     6     7    1
    27     7     8    1
    28    22    24    1
    29    24    25    1
    30    30    31   ar
    31    31    32   ar
    32    32    33   ar
    33    33    28   ar
    34    25    19    1
    35     8     3    1
    36    18     9    1
    37    17    11   ar
    38    27    34    1
    39    27    35    1
