@<TRIPOS>MOLECULE
*****
 49 55 0 0 0
SMALL
GASTEIGER

@<TRIPOS>ATOM
      1 C          59.8374   89.7831    7.1041 C.ar    1  UNL1        0.0481
      2 C          60.1844   90.4656    8.3939 C.ar    1  UNL1        0.0176
      3 C          60.2750   89.6704    9.6626 C.ar    1  UNL1        0.0382
      4 C          60.0186   88.1926    9.6413 C.ar    1  UNL1        0.1388
      5 C          59.6716   87.5101    8.3514 C.ar    1  UNL1        0.0382
      6 C          59.5810   88.3053    7.0828 C.ar    1  UNL1        0.0176
      7 N          59.5657   92.1688    3.2983 N.pl3   1  UNL1       -0.3041
      8 C          58.3314   91.9085    4.1099 C.3     1  UNL1        0.1122
      9 C          58.4220   91.1132    5.3786 C.3     1  UNL1        0.1122
     10 N          59.7468   90.5783    5.8355 N.pl3   1  UNL1       -0.3041
     11 C          60.9811   90.8387    5.0238 C.3     1  UNL1        0.1122
     12 C          60.8905   91.6339    3.7552 C.3     1  UNL1        0.1122
     13 C          59.2941   94.5546   -0.5075 C.ar    1  UNL1        0.0699
     14 C          60.0339   95.1087    0.6738 C.ar    1  UNL1        0.0190
     15 C          60.1244   94.3135    1.9424 C.ar    1  UNL1        0.0160
     16 C          59.4751   92.9641    2.0296 C.ar    1  UNL1        0.0480
     17 C          58.7353   92.4100    0.8483 C.ar    1  UNL1        0.0160
     18 C          58.6448   93.2052   -0.4203 C.ar    1  UNL1        0.0190
     19 N          58.3784   96.2968   -3.8530 N.ar    1  UNL1       -0.2024
     20 N          59.7501   96.8505   -3.6038 N.ar    1  UNL1       -0.1442
     21 C          60.2600   96.2652   -2.3203 C.ar    1  UNL1        0.2073
     22 N          59.2036   95.3499   -1.7762 N.ar    1  UNL1       -0.2398
     23 C          58.0407   95.3694   -2.7234 C.ar    1  UNL1        0.3522
     24 O          56.7641   94.5972   -2.5685 O.2     1  UNL1       -0.2444
     25 C          57.4990   96.6148   -5.0258 C.3     1  UNL1        0.1099
     26 C          56.0313   96.8473   -4.8214 C.3     1  UNL1        0.0265
     27 C          58.9185   95.5708   -6.9349 C.3     1  UNL1        0.0021
     28 C          58.0872   96.7002   -6.4030 C.3     1  UNL1        0.0245
     29 O          60.1092   87.3974   10.9099 O.3     1  UNL1       -0.4727
     30 C          61.4506   87.0092   11.4576 C.3     1  UNL1        0.2374
     31 C          62.2932   88.0262   12.1689 C.3     1  UNL1        0.1909
     32 C          62.2335   89.5123   11.9741 C.3     1  UNL1        0.1783
     33 O          63.2467   90.1402   12.8847 O.3     1  UNL1       -0.3266
     34 C          63.9326   89.0421   13.6422 C.3     1  UNL1        0.2315
     35 O          63.3433   87.7356   13.1998 O.3     1  UNL1       -0.3254
     36 C          64.6988   90.1683   14.2704 C.ar    1  UNL1        0.0410
     37 C          65.8882   90.7508   13.5661 C.ar    1  UNL1        0.0022
     38 C          66.6545   91.8770   14.1943 C.ar    1  UNL1        0.0113
     39 C          66.2313   92.4207   15.5267 C.ar    1  UNL1        0.0585
     40 CL         66.9975   93.5469   16.1548 Cl      1  UNL1       -0.0822
     41 C          65.0419   91.8382   16.2310 C.ar    1  UNL1        0.0226
     42 C          64.2756   90.7120   15.6028 C.ar    1  UNL1        0.0591
     43 CL         63.0862   90.1295   16.3070 Cl      1  UNL1       -0.0824
     44 C          64.7787   88.1795   14.5310 C.3     1  UNL1        0.1897
     45 N          64.2361   86.8829   15.0549 N.ar    1  UNL1       -0.2246
     46 C          64.6129   85.5120   14.5769 C.ar    1  UNL1        0.1974
     47 N          63.8311   84.5115   15.3754 N.ar    1  UNL1       -0.2007
     48 C          62.9711   85.2640   16.3470 C.ar    1  UNL1        0.2210
     49 N          63.2214   86.7297   16.1490 N.ar    1  UNL1       -0.1450
@<TRIPOS>BOND
     1    27    28    1
     2    28    25    1
     3    25    26    1
     4    25    19    1
     5    19    20   ar
     6    20    21   ar
     7    21    22   ar
     8    22    13    1
     9    13    14   ar
    10    14    15   ar
    11    15    16   ar
    12    16     7    1
    13     7     8    1
    14     8     9    1
    15     9    10    1
    16    10     1    1
    17     1     2   ar
    18     2     3   ar
    19     3     4   ar
    20     4    29    1
    21    29    30    1
    22    31    30    1
    23    31    32    1
    24    32    33    1
    25    33    34    1
    26    34    44    1
    27    44    45    1
    28    45    46   ar
    29    46    47   ar
    30    47    48   ar
    31    48    49   ar
    32    34    36    1
    33    36    37   ar
    34    37    38   ar
    35    38    39   ar
    36    39    40    1
    37    39    41   ar
    38    41    42   ar
    39    42    43    1
    40    34    35    1
    41     4     5   ar
    42     5     6   ar
    43    10    11    1
    44    11    12    1
    45    16    17   ar
    46    17    18   ar
    47    22    23   ar
    48    23    24    2
    49    23    19   ar
    50    18    13   ar
    51    12     7    1
    52     6     1   ar
    53    35    31    1
    54    49    45   ar
    55    42    36   ar
@<TRIPOS>MOLECULE
*****
 49 55 0 0 0
SMALL
GASTEIGER

@<TRIPOS>ATOM
      1 C          59.8483   89.8729    6.8462 C.ar    1  UNL1        0.0481
      2 C          60.2077   90.5498    8.1356 C.ar    1  UNL1        0.0176
      3 C          60.2320   89.7647    9.4136 C.ar    1  UNL1        0.0382
      4 C          59.8968   88.3026    9.4020 C.ar    1  UNL1        0.1388
      5 C          59.5374   87.6257    8.1125 C.ar    1  UNL1        0.0382
      6 C          59.5131   88.4109    6.8347 C.ar    1  UNL1        0.0176
      7 N          59.7757   92.2283    3.0126 N.pl3   1  UNL1       -0.3041
      8 C          58.5058   92.0024    3.7782 C.3     1  UNL1        0.1122
      9 C          58.5299   91.2173    5.0562 C.3     1  UNL1        0.1122
     10 N          59.8241   90.6580    5.5684 N.pl3   1  UNL1       -0.3041
     11 C          61.0941   90.8840    4.8027 C.3     1  UNL1        0.1122
     12 C          61.0699   91.6691    3.5249 C.3     1  UNL1        0.1122
     13 C          59.7032   94.5839   -0.8209 C.ar    1  UNL1        0.0699
     14 C          59.9559   95.2810    0.4830 C.ar    1  UNL1        0.0190
     15 C          59.9801   94.4958    1.7608 C.ar    1  UNL1        0.0160
     16 C          59.7515   93.0135    1.7347 C.ar    1  UNL1        0.0480
     17 C          59.4988   92.3164    0.4308 C.ar    1  UNL1        0.0160
     18 C          59.4747   93.1016   -0.8470 C.ar    1  UNL1        0.0190
     19 N          60.3134   96.2986   -4.2492 N.ar    1  UNL1       -0.2024
     20 N          58.9702   96.8560   -3.8813 N.ar    1  UNL1       -0.1442
     21 C          58.5782   96.2814   -2.5523 C.ar    1  UNL1        0.2073
     22 N          59.6790   95.3690   -2.0988 N.ar    1  UNL1       -0.2398
     23 C          60.7514   95.3797   -3.1475 C.ar    1  UNL1        0.3522
     24 O          62.0363   94.6070   -3.1026 O.2     1  UNL1       -0.2444
     25 C          61.0833   96.6062   -5.4992 C.3     1  UNL1        0.1099
     26 C          60.3724   96.6851   -6.8177 C.3     1  UNL1        0.0265
     27 C          63.4876   96.0361   -6.3019 C.3     1  UNL1        0.0021
     28 C          62.5642   96.8350   -5.4309 C.3     1  UNL1        0.0245
     29 O          59.9210   87.5175   10.6799 O.3     1  UNL1       -0.4727
     30 C          61.2306   87.0858   11.2701 C.3     1  UNL1        0.2374
     31 C          62.0886   88.0779   11.9981 C.3     1  UNL1        0.1909
     32 C          62.0055   89.5708   11.8783 C.3     1  UNL1        0.1783
     33 O          63.0458   90.1668   12.7797 O.3     1  UNL1       -0.3266
     34 C          63.7718   89.0421   13.4566 C.3     1  UNL1        0.2315
     35 O          63.1803   87.7512   12.9735 O.3     1  UNL1       -0.3254
     36 C          64.5491   90.1463   14.1097 C.ar    1  UNL1        0.0410
     37 C          65.7234   90.7562   13.4034 C.ar    1  UNL1        0.0022
     38 C          66.5008   91.8605   14.0565 C.ar    1  UNL1        0.0113
     39 C          66.1038   92.3547   15.4159 C.ar    1  UNL1        0.0585
     40 CL         66.8811   93.4588   16.0690 Cl      1  UNL1       -0.0822
     41 C          64.9295   91.7448   16.1223 C.ar    1  UNL1        0.0226
     42 C          64.1521   90.6405   15.4692 C.ar    1  UNL1        0.0591
     43 CL         62.9778   90.0306   16.1756 Cl      1  UNL1       -0.0824
     44 C          64.6604   88.1484   14.2700 C.3     1  UNL1        0.1897
     45 N          64.1219   86.8665   14.8329 N.ar    1  UNL1       -0.2246
     46 C          64.1910   85.5185   14.1787 C.ar    1  UNL1        0.1974
     47 N          63.5316   84.5265   15.0902 N.ar    1  UNL1       -0.2007
     48 C          63.0549   85.2614   16.3079 C.ar    1  UNL1        0.2210
     49 N          63.4198   86.7077   16.1489 N.ar    1  UNL1       -0.1450
@<TRIPOS>BOND
     1    27    28    1
     2    28    25    1
     3    25    26    1
     4    25    19    1
     5    19    20   ar
     6    20    21   ar
     7    21    22   ar
     8    22    13    1
     9    13    14   ar
    10    14    15   ar
    11    15    16   ar
    12    16     7    1
    13     7     8    1
    14     8     9    1
    15     9    10    1
    16    10     1    1
    17     1     2   ar
    18     2     3   ar
    19     3     4   ar
    20     4    29    1
    21    29    30    1
    22    31    30    1
    23    31    32    1
    24    32    33    1
    25    33    34    1
    26    34    44    1
    27    44    45    1
    28    45    46   ar
    29    46    47   ar
    30    47    48   ar
    31    48    49   ar
    32    34    36    1
    33    36    37   ar
    34    37    38   ar
    35    38    39   ar
    36    39    40    1
    37    39    41   ar
    38    41    42   ar
    39    42    43    1
    40    34    35    1
    41     4     5   ar
    42     5     6   ar
    43    10    11    1
    44    11    12    1
    45    16    17   ar
    46    17    18   ar
    47    22    23   ar
    48    23    24    2
    49    23    19   ar
    50    18    13   ar
    51    12     7    1
    52     6     1   ar
    53    35    31    1
    54    49    45   ar
    55    42    36   ar
@<TRIPOS>MOLECULE
*****
 49 55 0 0 0
SMALL
GASTEIGER

@<TRIPOS>ATOM
      1 C          60.4174   90.4293    6.8047 C.ar    1  UNL1        0.0481
      2 C          61.4885   90.9103    7.7381 C.ar    1  UNL1        0.0176
      3 C          61.6361   90.2879    9.0949 C.ar    1  UNL1        0.0382
      4 C          60.7126   89.1843    9.5182 C.ar    1  UNL1        0.1388
      5 C          59.6414   88.7032    8.5847 C.ar    1  UNL1        0.0382
      6 C          59.4939   89.3257    7.2280 C.ar    1  UNL1        0.0176
      7 N          59.9748   92.2968    2.7345 N.pl3   1  UNL1       -0.3041
      8 C          58.7781   92.1509    3.6269 C.3     1  UNL1        0.1122
      9 C          58.9256   91.5284    4.9837 C.3     1  UNL1        0.1122
     10 N          60.2699   91.0518    5.4480 N.pl3   1  UNL1       -0.3041
     11 C          61.4667   91.1976    4.5555 C.3     1  UNL1        0.1122
     12 C          61.3192   91.8201    3.1988 C.3     1  UNL1        0.1122
     13 C          59.5323   94.1642   -1.3357 C.ar    1  UNL1        0.0699
     14 C          59.6543   92.6751   -1.2030 C.ar    1  UNL1        0.0190
     15 C          59.8018   92.0526    0.1537 C.ar    1  UNL1        0.0160
     16 C          59.8273   92.9193    1.3777 C.ar    1  UNL1        0.0480
     17 C          59.7054   94.4084    1.2450 C.ar    1  UNL1        0.0160
     18 C          59.5579   95.0308   -0.1117 C.ar    1  UNL1        0.0190
     19 N          59.8114   95.4423   -4.9901 N.ar    1  UNL1       -0.2024
     20 N          58.5042   96.0469   -4.5705 N.ar    1  UNL1       -0.1442
     21 C          58.2407   95.6417   -3.1506 C.ar    1  UNL1        0.2073
     22 N          59.3848   94.7867   -2.6925 N.ar    1  UNL1       -0.2398
     23 C          60.3556   94.6635   -3.8294 C.ar    1  UNL1        0.3522
     24 O          61.6443   93.8961   -3.8091 O.2     1  UNL1       -0.2444
     25 C          60.4603   95.5906   -6.3343 C.3     1  UNL1        0.1099
     26 C          59.9048   94.8590   -7.5201 C.3     1  UNL1        0.0265
     27 C          62.9056   95.9335   -7.1422 C.3     1  UNL1        0.0021
     28 C          61.6648   96.4704   -6.4927 C.3     1  UNL1        0.0245
     29 O          60.8601   88.5618   10.8749 O.3     1  UNL1       -0.4727
     30 C          62.1586   87.9232   11.2698 C.3     1  UNL1        0.2374
     31 C          62.2095   86.4563   11.5794 C.3     1  UNL1        0.1909
     32 C          61.5406   85.3661   10.7957 C.3     1  UNL1        0.1783
     33 O          61.8558   84.0582   11.4589 O.3     1  UNL1       -0.3266
     34 C          62.7195   84.3400   12.6526 C.3     1  UNL1        0.2315
     35 O          62.9380   85.8222   12.7270 O.3     1  UNL1       -0.3254
     36 C          62.6797   82.8518   12.8356 C.ar    1  UNL1        0.0410
     37 C          61.8927   82.2558   13.9650 C.ar    1  UNL1        0.0022
     38 C          61.8529   80.7675   14.1481 C.ar    1  UNL1        0.0113
     39 C          62.6002   79.8753   13.2019 C.ar    1  UNL1        0.0585
     40 CL         62.5604   78.3870   13.3849 Cl      1  UNL1       -0.0822
     41 C          63.3872   80.4712   12.0725 C.ar    1  UNL1        0.0226
     42 C          63.4270   81.9595   11.8894 C.ar    1  UNL1        0.0591
     43 CL         64.2140   82.5554   10.7600 Cl      1  UNL1       -0.0824
     44 C          63.5748   84.3107   13.8845 C.3     1  UNL1        0.1897
     45 N          63.1925   85.1282   15.0826 N.ar    1  UNL1       -0.2246
     46 C          62.0635   84.8355   16.0258 C.ar    1  UNL1        0.1974
     47 N          62.0453   85.9082   17.0741 N.ar    1  UNL1       -0.2007
     48 C          63.1630   86.8640   16.7787 C.ar    1  UNL1        0.2210
     49 N          63.8721   86.3818   15.5479 N.ar    1  UNL1       -0.1450
@<TRIPOS>BOND
     1    27    28    1
     2    28    25    1
     3    25    26    1
     4    25    19    1
     5    19    20   ar
     6    20    21   ar
     7    21    22   ar
     8    22    13    1
     9    13    14   ar
    10    14    15   ar
    11    15    16   ar
    12    16     7    1
    13     7     8    1
    14     8     9    1
    15     9    10    1
    16    10     1    1
    17     1     2   ar
    18     2     3   ar
    19     3     4   ar
    20     4    29    1
    21    29    30    1
    22    31    30    1
    23    31    32    1
    24    32    33    1
    25    33    34    1
    26    34    44    1
    27    44    45    1
    28    45    46   ar
    29    46    47   ar
    30    47    48   ar
    31    48    49   ar
    32    34    36    1
    33    36    37   ar
    34    37    38   ar
    35    38    39   ar
    36    39    40    1
    37    39    41   ar
    38    41    42   ar
    39    42    43    1
    40    34    35    1
    41     4     5   ar
    42     5     6   ar
    43    10    11    1
    44    11    12    1
    45    16    17   ar
    46    17    18   ar
    47    22    23   ar
    48    23    24    2
    49    23    19   ar
    50    18    13   ar
    51    12     7    1
    52     6     1   ar
    53    35    31    1
    54    49    45   ar
    55    42    36   ar
@<TRIPOS>MOLECULE
*****
 49 55 0 0 0
SMALL
GASTEIGER

@<TRIPOS>ATOM
      1 C          60.1462   89.4372    7.6327 C.ar    1  UNL1        0.0481
      2 C          60.1688   90.1375    8.9590 C.ar    1  UNL1        0.0176
      3 C          60.3167   89.3443   10.2236 C.ar    1  UNL1        0.0382
      4 C          60.4420   87.8508   10.1618 C.ar    1  UNL1        0.1388
      5 C          60.4193   87.1505    8.8354 C.ar    1  UNL1        0.0382
      6 C          60.2714   87.9437    7.5709 C.ar    1  UNL1        0.0176
      7 N          59.7024   91.8168    3.8392 N.pl3   1  UNL1       -0.3041
      8 C          61.0680   91.4432    4.3348 C.3     1  UNL1        0.1122
      9 C          61.2160   90.6500    5.5994 C.3     1  UNL1        0.1122
     10 N          59.9983   90.2304    6.3683 N.pl3   1  UNL1       -0.3041
     11 C          58.6327   90.6040    5.8726 C.3     1  UNL1        0.1122
     12 C          58.4848   91.3972    4.6081 C.3     1  UNL1        0.1122
     13 C          59.2587   94.1964    0.0458 C.ar    1  UNL1        0.0699
     14 C          60.3070   94.5743    1.0498 C.ar    1  UNL1        0.0190
     15 C          60.4549   93.7811    2.3143 C.ar    1  UNL1        0.0160
     16 C          59.5545   92.6100    2.5747 C.ar    1  UNL1        0.0480
     17 C          58.5062   92.2322    1.5707 C.ar    1  UNL1        0.0160
     18 C          58.3583   93.0254    0.3062 C.ar    1  UNL1        0.0190
     19 N          58.9385   95.5796   -3.5667 N.ar    1  UNL1       -0.2024
     20 N          58.8277   96.8410   -2.7625 N.ar    1  UNL1       -0.1442
     21 C          58.9341   96.4764   -1.3114 C.ar    1  UNL1        0.2073
     22 N          59.1108   94.9897   -1.2187 N.ar    1  UNL1       -0.2398
     23 C          59.1135   94.4355   -2.6126 C.ar    1  UNL1        0.3522
     24 O          59.2647   92.9908   -2.9867 O.2     1  UNL1       -0.2444
     25 C          58.8840   95.4800   -5.0624 C.3     1  UNL1        0.1099
     26 C          58.7303   96.7204   -5.8916 C.3     1  UNL1        0.0265
     27 C          59.4863   94.0385   -7.1383 C.3     1  UNL1        0.0021
     28 C          58.9832   94.1399   -5.7289 C.3     1  UNL1        0.0245
     29 O          60.5898   87.0576   11.4262 O.3     1  UNL1       -0.4727
     30 C          61.9517   86.6348   11.8913 C.3     1  UNL1        0.2374
     31 C          62.8347   87.6103   12.6117 C.3     1  UNL1        0.1909
     32 C          63.9590   87.2617   13.5415 C.3     1  UNL1        0.1783
     33 O          64.5676   88.5415   14.0332 O.3     1  UNL1       -0.3266
     34 C          63.8193   89.6810   13.4072 C.3     1  UNL1        0.2315
     35 O          62.7484   89.1055   12.5287 O.3     1  UNL1       -0.3254
     36 C          64.7757   90.5320   14.1891 C.ar    1  UNL1        0.0410
     37 C          66.1333   90.8409   13.6311 C.ar    1  UNL1        0.0022
     38 C          67.0897   91.6919   14.4129 C.ar    1  UNL1        0.0113
     39 C          66.6884   92.2339   15.7527 C.ar    1  UNL1        0.0585
     40 CL         67.6448   93.0849   16.5345 Cl      1  UNL1       -0.0822
     41 C          65.3308   91.9251   16.3107 C.ar    1  UNL1        0.0226
     42 C          64.3744   91.0741   15.5289 C.ar    1  UNL1        0.0591
     43 CL         63.0167   90.7652   16.0869 Cl      1  UNL1       -0.0824
     44 C          63.2711   90.9984   12.9448 C.3     1  UNL1        0.1897
     45 N          64.0578   91.8438   11.9876 N.ar    1  UNL1       -0.2246
     46 C          64.0501   91.7226   10.4925 C.ar    1  UNL1        0.1974
     47 N          64.9780   92.7627    9.9383 N.ar    1  UNL1       -0.2007
     48 C          65.5592   93.5268   11.0909 C.ar    1  UNL1        0.2210
     49 N          64.9905   92.9589   12.3574 N.ar    1  UNL1       -0.1450
@<TRIPOS>BOND
     1    27    28    1
     2    28    25    1
     3    25    26    1
     4    25    19    1
     5    19    20   ar
     6    20    21   ar
     7    21    22   ar
     8    22    13    1
     9    13    14   ar
    10    14    15   ar
    11    15    16   ar
    12    16     7    1
    13     7     8    1
    14     8     9    1
    15     9    10    1
    16    10     1    1
    17     1     2   ar
    18     2     3   ar
    19     3     4   ar
    20     4    29    1
    21    29    30    1
    22    31    30    1
    23    31    32    1
    24    32    33    1
    25    33    34    1
    26    34    44    1
    27    44    45    1
    28    45    46   ar
    29    46    47   ar
    30    47    48   ar
    31    48    49   ar
    32    34    36    1
    33    36    37   ar
    34    37    38   ar
    35    38    39   ar
    36    39    40    1
    37    39    41   ar
    38    41    42   ar
    39    42    43    1
    40    34    35    1
    41     4     5   ar
    42     5     6   ar
    43    10    11    1
    44    11    12    1
    45    16    17   ar
    46    17    18   ar
    47    22    23   ar
    48    23    24    2
    49    23    19   ar
    50    18    13   ar
    51    12     7    1
    52     6     1   ar
    53    35    31    1
    54    49    45   ar
    55    42    36   ar
