@<TRIPOS>MOLECULE
*****
 36 39 0 0 0
SMALL
GASTEIGER

@<TRIPOS>ATOM
      1 N          64.5064   88.9001   14.6675 N.am    1  UNL1       -0.2752
      2 C          63.5627   88.7212   15.8196 C.2     1  UNL1        0.3050
      3 O          63.0910   89.9155   16.5951 O.2     1  UNL1       -0.2646
      4 H          64.8160   88.1163   14.1585 H       1  UNL1        0.1554
      5 C          65.9226   93.0193   13.5374 C.ar    1  UNL1        0.2248
      6 C          66.6387   92.2467   14.6053 C.ar    1  UNL1        0.0590
      7 C          66.1666   90.8737   14.9820 C.ar    1  UNL1        0.0211
      8 C          64.9785   90.2732   14.2908 C.ar    1  UNL1        0.0703
      9 C          64.2624   91.0457   13.2229 C.ar    1  UNL1        0.1167
     10 N          64.7344   92.4188   12.8462 N.ar    1  UNL1       -0.2088
     11 O          66.3946   94.3923   13.1608 O.3     1  UNL1       -0.4640
     12 C          66.6547   95.5719    8.8259 C.3     1  UNL1        0.0058
     13 C          66.8274   94.1361    9.2242 C.3     1  UNL1        0.0041
     14 C          66.7408   93.7429   10.6691 C.3     1  UNL1        0.0436
     15 C          66.4813   94.7855   11.7158 C.3     1  UNL1        0.1675
     16 C          66.3085   96.2213   11.3175 C.3     1  UNL1        0.0436
     17 C          66.3952   96.6145    9.8726 C.3     1  UNL1        0.0041
     18 C          66.7414   95.9650    7.3809 C.3     1  UNL1        0.0417
     19 O          64.3025   96.8560    7.4733 O.co2   1  UNL1       -0.5492
     20 C          65.5484   96.5590    6.6924 C.2     1  UNL1        0.0503
     21 O          65.6013   96.8560    5.2231 O.co2   1  UNL1       -0.5492
     22 C          63.0908   87.3482   16.1962 C.ar    1  UNL1        0.3052
     23 N          62.3281   86.9874   17.4365 N.ar    1  UNL1       -0.1010
     24 N          62.0645   85.5110   17.4056 N.ar    1  UNL1       -0.0919
     25 C          62.6643   84.9594   16.1462 C.ar    1  UNL1        0.3126
     26 O          63.2986   86.0949   15.3988 O.2     1  UNL1       -0.4006
     27 N          62.6350   83.5243   15.7106 N.pl3   1  UNL1       -0.2664
     28 H          62.4681   82.8130   16.3704 H       1  UNL1        0.1566
     29 C          62.8600   83.1731   14.2698 C.ar    1  UNL1        0.0541
     30 C          63.1154   81.7484   13.8762 C.ar    1  UNL1        0.0172
     31 C          63.3403   81.3972   12.4354 C.ar    1  UNL1        0.0332
     32 C          63.3099   82.4706   11.3882 C.ar    1  UNL1        0.1675
     33 F          63.5349   82.1193    9.9473 F       1  UNL1       -0.2018
     34 C          63.0546   83.8953   11.7817 C.ar    1  UNL1        0.1686
     35 F          63.0242   84.9688   10.7345 F       1  UNL1       -0.2018
     36 C          62.8296   84.2466   13.2225 C.ar    1  UNL1        0.0467
@<TRIPOS>UNITY_ATOM_ATTR
19 1
charge -1
@<TRIPOS>BOND
     1    19    20   ar
     2    20    21   ar
     3    20    18    1
     4    12    18    1
     5    12    13    1
     6    13    14    1
     7    14    15    1
     8    15    11    1
     9    11     5    1
    10     5     6   ar
    11     6     7   ar
    12     7     8   ar
    13     8     1    1
    14     1     2   am
    15     2     3    2
    16     2    22    1
    17    22    23   ar
    18    23    24   ar
    19    24    25   ar
    20    25    27    1
    21    27    29    1
    22    29    30   ar
    23    30    31   ar
    24    31    32   ar
    25    32    33    1
    26    32    34   ar
    27    34    35    1
    28    34    36   ar
    29    25    26   ar
    30     8     9   ar
    31     9    10   ar
    32    15    16    1
    33    16    17    1
    34    17    12    1
    35    10     5   ar
    36    26    22   ar
    37    36    29   ar
    38     1     4    1
    39    27    28    1
@<TRIPOS>MOLECULE
*****
 36 39 0 0 0
SMALL
GASTEIGER

@<TRIPOS>ATOM
      1 N          60.3078   90.1196    8.4530 N.am    1  UNL1       -0.2752
      2 C          59.6650   89.4584    7.2700 C.2     1  UNL1        0.3050
      3 O          59.6856   87.9640    7.1431 O.2     1  UNL1       -0.2646
      4 H          60.2942   91.1005    8.5363 H       1  UNL1        0.1554
      5 C          62.2981   87.6197   11.6216 C.ar    1  UNL1        0.2248
      6 C          62.9809   88.8477   11.0963 C.ar    1  UNL1        0.0590
      7 C          62.3175   89.6810   10.0402 C.ar    1  UNL1        0.0211
      8 C          60.9712   89.2863    9.5092 C.ar    1  UNL1        0.0703
      9 C          60.2884   88.0583   10.0345 C.ar    1  UNL1        0.1167
     10 N          60.9519   87.2250   11.0907 N.ar    1  UNL1       -0.2088
     11 O          62.9616   86.7864   12.6777 O.3     1  UNL1       -0.4640
     12 C          62.7583   82.2964   12.4585 C.3     1  UNL1        0.0058
     13 C          62.6533   82.9880   13.7854 C.3     1  UNL1        0.0041
     14 C          62.7211   84.4847   13.8584 C.3     1  UNL1        0.0436
     15 C          62.8938   85.2898   12.6047 C.3     1  UNL1        0.1675
     16 C          62.9988   84.5981   11.2778 C.3     1  UNL1        0.0436
     17 C          62.9311   83.1014   11.2048 C.3     1  UNL1        0.0041
     18 C          62.6906   80.7997   12.3855 C.3     1  UNL1        0.0417
     19 O          63.3705   79.5823   14.5777 O.co2   1  UNL1       -0.5492
     20 C          62.3136   80.0058   13.6010 C.2     1  UNL1        0.0503
     21 O          60.8799   79.6353   13.8400 O.co2   1  UNL1       -0.5492
     22 C          59.0016   90.2918    6.2139 C.ar    1  UNL1        0.3052
     23 N          57.5233   90.4375    6.0052 N.ar    1  UNL1       -0.1010
     24 N          57.3081   91.3615    4.8433 N.ar    1  UNL1       -0.0919
     25 C          58.6534   91.7868    4.3339 C.ar    1  UNL1        0.3126
     26 O          59.7000   91.1256    5.1810 O.2     1  UNL1       -0.4006
     27 N          58.9074   92.7110    3.1801 N.pl3   1  UNL1       -0.2664
     28 H          58.1519   93.1431    2.7200 H       1  UNL1        0.1566
     29 C          60.3125   92.9767    2.7272 C.ar    1  UNL1        0.0541
     30 C          60.6160   94.1870    1.8948 C.ar    1  UNL1        0.0172
     31 C          62.0211   94.4527    1.4420 C.ar    1  UNL1        0.0332
     32 C          63.1226   93.5081    1.8215 C.ar    1  UNL1        0.1675
     33 F          64.5278   93.7739    1.3686 F       1  UNL1       -0.2018
     34 C          62.8192   92.2978    2.6540 C.ar    1  UNL1        0.1686
     35 F          63.9208   91.3531    3.0336 F       1  UNL1       -0.2018
     36 C          61.4141   92.0320    3.1068 C.ar    1  UNL1        0.0467
@<TRIPOS>UNITY_ATOM_ATTR
19 1
charge -1
@<TRIPOS>BOND
     1    19    20   ar
     2    20    21   ar
     3    20    18    1
     4    12    18    1
     5    12    13    1
     6    13    14    1
     7    14    15    1
     8    15    11    1
     9    11     5    1
    10     5     6   ar
    11     6     7   ar
    12     7     8   ar
    13     8     1    1
    14     1     2   am
    15     2     3    2
    16     2    22    1
    17    22    23   ar
    18    23    24   ar
    19    24    25   ar
    20    25    27    1
    21    27    29    1
    22    29    30   ar
    23    30    31   ar
    24    31    32   ar
    25    32    33    1
    26    32    34   ar
    27    34    35    1
    28    34    36   ar
    29    25    26   ar
    30     8     9   ar
    31     9    10   ar
    32    15    16    1
    33    16    17    1
    34    17    12    1
    35    10     5   ar
    36    26    22   ar
    37    36    29   ar
    38     1     4    1
    39    27    28    1
@<TRIPOS>MOLECULE
*****
 36 39 0 0 0
SMALL
GASTEIGER

@<TRIPOS>ATOM
      1 N          60.7471   90.6032    5.5004 N.am    1  UNL1       -0.2752
      2 C          59.4427   90.0614    6.0053 C.2     1  UNL1        0.3050
      3 O          58.1539   90.5024    5.3771 O.2     1  UNL1       -0.2646
      4 H          61.5929   90.3137    5.9127 H       1  UNL1        0.1554
      5 C          60.7943   93.5515    2.1011 C.ar    1  UNL1        0.2248
      6 C          61.9388   92.5993    2.2840 C.ar    1  UNL1        0.0590
      7 C          61.9230   91.6165    3.4171 C.ar    1  UNL1        0.0211
      8 C          60.7628   91.5860    4.3673 C.ar    1  UNL1        0.0703
      9 C          59.6183   92.5381    4.1844 C.ar    1  UNL1        0.1167
     10 N          59.6340   93.5210    3.0513 N.ar    1  UNL1       -0.2088
     11 O          60.8100   94.5343    0.9680 O.3     1  UNL1       -0.4640
     12 C          58.4685   93.6849   -2.7798 C.3     1  UNL1        0.0058
     13 C          59.9556   93.4892   -2.7640 C.3     1  UNL1        0.0041
     14 C          60.7361   93.7724   -1.5147 C.3     1  UNL1        0.0436
     15 C          60.0295   94.2512   -0.2813 C.3     1  UNL1        0.1675
     16 C          58.5425   94.4468   -0.2971 C.3     1  UNL1        0.0436
     17 C          57.7620   94.1637   -1.5464 C.3     1  UNL1        0.0041
     18 C          57.6881   93.4018   -4.0291 C.3     1  UNL1        0.0417
     19 O          57.3143   91.2215   -5.3918 O.co2   1  UNL1       -0.5492
     20 C          57.0021   92.0790   -4.2013 C.2     1  UNL1        0.0503
     21 O          56.0038   91.6137   -3.1830 O.co2   1  UNL1       -0.5492
     22 C          59.4270   89.0786    7.1384 C.ar    1  UNL1        0.3052
     23 N          58.3979   88.0112    7.3655 N.ar    1  UNL1       -0.1010
     24 N          58.7726   87.2636    8.6108 N.ar    1  UNL1       -0.0919
     25 C          60.0332   87.8690    9.1533 C.ar    1  UNL1        0.3126
     26 O          60.4377   88.9908    8.2433 O.2     1  UNL1       -0.4006
     27 N          60.7616   87.4298   10.3888 N.pl3   1  UNL1       -0.2664
     28 H          60.6152   87.9016   11.2404 H       1  UNL1        0.1566
     29 C          61.7128   86.2717   10.3269 C.ar    1  UNL1        0.0541
     30 C          62.3466   85.8906    9.0220 C.ar    1  UNL1        0.0172
     31 C          63.2978   84.7325    8.9600 C.ar    1  UNL1        0.0332
     32 C          63.6153   83.9555   10.2031 C.ar    1  UNL1        0.1675
     33 F          64.5666   82.7973   10.1411 F       1  UNL1       -0.2018
     34 C          62.9816   84.3365   11.5081 C.ar    1  UNL1        0.1686
     35 F          63.2991   83.5594   12.7513 F       1  UNL1       -0.2018
     36 C          62.0303   85.4946   11.5701 C.ar    1  UNL1        0.0467
@<TRIPOS>UNITY_ATOM_ATTR
19 1
charge -1
@<TRIPOS>BOND
     1    19    20   ar
     2    20    21   ar
     3    20    18    1
     4    12    18    1
     5    12    13    1
     6    13    14    1
     7    14    15    1
     8    15    11    1
     9    11     5    1
    10     5     6   ar
    11     6     7   ar
    12     7     8   ar
    13     8     1    1
    14     1     2   am
    15     2     3    2
    16     2    22    1
    17    22    23   ar
    18    23    24   ar
    19    24    25   ar
    20    25    27    1
    21    27    29    1
    22    29    30   ar
    23    30    31   ar
    24    31    32   ar
    25    32    33    1
    26    32    34   ar
    27    34    35    1
    28    34    36   ar
    29    25    26   ar
    30     8     9   ar
    31     9    10   ar
    32    15    16    1
    33    16    17    1
    34    17    12    1
    35    10     5   ar
    36    26    22   ar
    37    36    29   ar
    38     1     4    1
    39    27    28    1
@<TRIPOS>MOLECULE
*****
 36 39 0 0 0
SMALL
GASTEIGER

@<TRIPOS>ATOM
      1 N          61.2026   87.5716   10.8334 N.am    1  UNL1       -0.2752
      2 C          62.4378   88.1923   11.4155 C.2     1  UNL1        0.3050
      3 O          63.0105   89.4373   10.8056 O.2     1  UNL1       -0.2646
      4 H          60.8267   86.7545   11.2337 H       1  UNL1        0.1554
      5 C          59.2148   89.4446    7.2569 C.ar    1  UNL1        0.2248
      6 C          59.4472   87.9632    7.2957 C.ar    1  UNL1        0.0590
      7 C          60.1097   87.3389    8.4878 C.ar    1  UNL1        0.0211
      8 C          60.5400   88.1960    9.6412 C.ar    1  UNL1        0.0703
      9 C          60.3077   89.6774    9.6024 C.ar    1  UNL1        0.1167
     10 N          59.6451   90.3017    8.4103 N.ar    1  UNL1       -0.2088
     11 O          58.5522   90.0689    6.0648 O.3     1  UNL1       -0.4640
     12 C          60.9815   92.4893    3.1509 C.3     1  UNL1        0.0058
     13 C          61.6482   91.4476    3.9998 C.3     1  UNL1        0.0041
     14 C          60.8384   90.6408    4.9710 C.3     1  UNL1        0.0436
     15 C          59.3620   90.8757    5.0935 C.3     1  UNL1        0.1675
     16 C          58.6954   91.9173    4.2447 C.3     1  UNL1        0.0436
     17 C          59.5051   92.7241    3.2734 C.3     1  UNL1        0.0041
     18 C          61.7913   93.2960    2.1797 C.3     1  UNL1        0.0417
     19 O          60.9566   91.8885    0.1617 O.co2   1  UNL1       -0.5492
     20 C          61.5563   93.1514    0.7053 C.2     1  UNL1        0.0503
     21 O          61.9210   94.2697   -0.2256 O.co2   1  UNL1       -0.5492
     22 C          63.1004   87.5679   12.6076 C.ar    1  UNL1        0.3052
     23 N          63.8816   88.2934   13.6628 N.ar    1  UNL1       -0.1010
     24 N          64.3621   87.2823   14.6612 N.ar    1  UNL1       -0.0919
     25 C          63.8778   85.9319   14.2231 C.ar    1  UNL1        0.3126
     26 O          63.0980   86.1085   12.9539 O.2     1  UNL1       -0.4006
     27 N          64.1291   84.6330   14.9300 N.pl3   1  UNL1       -0.2664
     28 H          64.6006   84.6262   15.7943 H       1  UNL1        0.1566
     29 C          63.6621   83.3446   14.3202 C.ar    1  UNL1        0.0541
     30 C          64.5250   82.6310   13.3222 C.ar    1  UNL1        0.0172
     31 C          64.0580   81.3426   12.7124 C.ar    1  UNL1        0.0332
     32 C          62.7281   80.7678   13.1006 C.ar    1  UNL1        0.1675
     33 F          62.2611   79.4793   12.4907 F       1  UNL1       -0.2018
     34 C          61.8651   81.4813   14.0986 C.ar    1  UNL1        0.1686
     35 F          60.5351   80.9065   14.4869 F       1  UNL1       -0.2018
     36 C          62.3321   82.7697   14.7085 C.ar    1  UNL1        0.0467
@<TRIPOS>UNITY_ATOM_ATTR
19 1
charge -1
@<TRIPOS>BOND
     1    19    20   ar
     2    20    21   ar
     3    20    18    1
     4    12    18    1
     5    12    13    1
     6    13    14    1
     7    14    15    1
     8    15    11    1
     9    11     5    1
    10     5     6   ar
    11     6     7   ar
    12     7     8   ar
    13     8     1    1
    14     1     2   am
    15     2     3    2
    16     2    22    1
    17    22    23   ar
    18    23    24   ar
    19    24    25   ar
    20    25    27    1
    21    27    29    1
    22    29    30   ar
    23    30    31   ar
    24    31    32   ar
    25    32    33    1
    26    32    34   ar
    27    34    35    1
    28    34    36   ar
    29    25    26   ar
    30     8     9   ar
    31     9    10   ar
    32    15    16    1
    33    16    17    1
    34    17    12    1
    35    10     5   ar
    36    26    22   ar
    37    36    29   ar
    38     1     4    1
    39    27    28    1
@<TRIPOS>MOLECULE
*****
 36 39 0 0 0
SMALL
GASTEIGER

@<TRIPOS>ATOM
      1 N          60.2286   87.4256    7.4149 N.am    1  UNL1       -0.2752
      2 C          60.0459   88.8897    7.6849 C.2     1  UNL1        0.3050
      3 O          60.6136   89.4987    8.9326 O.2     1  UNL1       -0.2646
      4 H          59.8560   87.0258    6.5960 H       1  UNL1        0.1554
      5 C          62.4797   84.8602   10.3478 C.ar    1  UNL1        0.2248
      6 C          62.8825   84.8776    8.9030 C.ar    1  UNL1        0.0590
      7 C          62.1321   85.7326    7.9254 C.ar    1  UNL1        0.0211
      8 C          60.9790   86.5704    8.3926 C.ar    1  UNL1        0.0703
      9 C          60.5761   86.5531    9.8373 C.ar    1  UNL1        0.1167
     10 N          61.3265   85.6980   10.8150 N.ar    1  UNL1       -0.2088
     11 O          63.2301   84.0051   11.3254 O.3     1  UNL1       -0.4640
     12 C          63.5148   85.2434   15.6423 C.3     1  UNL1        0.0058
     13 C          64.0203   86.1567   14.5652 C.3     1  UNL1        0.0041
     14 C          63.9253   85.7440   13.1262 C.3     1  UNL1        0.0436
     15 C          63.3250   84.4179   12.7644 C.3     1  UNL1        0.1675
     16 C          62.8196   83.5045   13.8415 C.3     1  UNL1        0.0436
     17 C          62.9145   83.9173   15.2805 C.3     1  UNL1        0.0041
     18 C          63.6097   85.6561   17.0813 C.3     1  UNL1        0.0417
     19 O          61.1193   86.3964   17.0724 O.co2   1  UNL1       -0.5492
     20 C          62.4666   86.3775   17.7316 C.2     1  UNL1        0.0503
     21 O          62.6708   87.0800   19.0411 O.co2   1  UNL1       -0.5492
     22 C          59.2956   89.7447    6.7073 C.ar    1  UNL1        0.3052
     23 N          57.8086   89.7617    6.5106 N.ar    1  UNL1       -0.1010
     24 N          57.4945   90.7604    5.4364 N.ar    1  UNL1       -0.0919
     25 C          58.7873   91.3606    4.9692 C.ar    1  UNL1        0.3126
     26 O          59.9005   90.7329    5.7546 O.2     1  UNL1       -0.4006
     27 N          58.9402   92.4052    3.9035 N.pl3   1  UNL1       -0.2664
     28 H          58.1803   92.9864    3.6714 H       1  UNL1        0.1566
     29 C          60.2509   92.5641    3.1916 C.ar    1  UNL1        0.0541
     30 C          60.3821   93.5564    2.0745 C.ar    1  UNL1        0.0172
     31 C          61.6928   93.7153    1.3626 C.ar    1  UNL1        0.0332
     32 C          62.8722   92.8819    1.7677 C.ar    1  UNL1        0.1675
     33 F          64.1829   93.0408    1.0557 F       1  UNL1       -0.2018
     34 C          62.7410   91.8895    2.8848 C.ar    1  UNL1        0.1686
     35 F          63.9205   91.0560    3.2900 F       1  UNL1       -0.2018
     36 C          61.4304   91.7306    3.5968 C.ar    1  UNL1        0.0467
@<TRIPOS>UNITY_ATOM_ATTR
19 1
charge -1
@<TRIPOS>BOND
     1    19    20   ar
     2    20    21   ar
     3    20    18    1
     4    12    18    1
     5    12    13    1
     6    13    14    1
     7    14    15    1
     8    15    11    1
     9    11     5    1
    10     5     6   ar
    11     6     7   ar
    12     7     8   ar
    13     8     1    1
    14     1     2   am
    15     2     3    2
    16     2    22    1
    17    22    23   ar
    18    23    24   ar
    19    24    25   ar
    20    25    27    1
    21    27    29    1
    22    29    30   ar
    23    30    31   ar
    24    31    32   ar
    25    32    33    1
    26    32    34   ar
    27    34    35    1
    28    34    36   ar
    29    25    26   ar
    30     8     9   ar
    31     9    10   ar
    32    15    16    1
    33    16    17    1
    34    17    12    1
    35    10     5   ar
    36    26    22   ar
    37    36    29   ar
    38     1     4    1
    39    27    28    1
@<TRIPOS>MOLECULE
*****
 36 39 0 0 0
SMALL
GASTEIGER

@<TRIPOS>ATOM
      1 N          60.8104   90.5978    5.3792 N.am    1  UNL1       -0.2752
      2 C          59.4799   90.1722    5.9256 C.2     1  UNL1        0.3050
      3 O          58.2183   90.7730    5.3803 O.2     1  UNL1       -0.2646
      4 H          61.6385   90.2034    5.7371 H       1  UNL1        0.1554
      5 C          61.0172   93.6774    2.1044 C.ar    1  UNL1        0.2248
      6 C          62.1394   92.6985    2.2855 C.ar    1  UNL1        0.0590
      7 C          62.0704   91.6720    3.3771 C.ar    1  UNL1        0.0211
      8 C          60.8793   91.6243    4.2876 C.ar    1  UNL1        0.0703
      9 C          59.7572   92.6031    4.1066 C.ar    1  UNL1        0.1167
     10 N          59.8262   93.6297    3.0150 N.ar    1  UNL1       -0.2088
     11 O          61.0862   94.7038    1.0129 O.3     1  UNL1       -0.4640
     12 C          62.7048   93.5807   -3.0329 C.3     1  UNL1        0.0058
     13 C          61.2416   93.4262   -2.7412 C.3     1  UNL1        0.0041
     14 C          60.7021   93.8006   -1.3926 C.3     1  UNL1        0.0436
     15 C          61.6258   94.3294   -0.3357 C.3     1  UNL1        0.1675
     16 C          63.0890   94.4839   -0.6274 C.3     1  UNL1        0.0436
     17 C          63.6285   94.1095   -1.9760 C.3     1  UNL1        0.0041
     18 C          63.2444   93.2063   -4.3815 C.3     1  UNL1        0.0417
     19 O          65.6144   92.3013   -4.9420 O.co2   1  UNL1       -0.5492
     20 C          64.6868   93.4567   -4.7082 C.2     1  UNL1        0.0503
     21 O          65.2016   94.8625   -4.8011 O.co2   1  UNL1       -0.5492
     22 C          59.4110   89.1457    7.0171 C.ar    1  UNL1        0.3052
     23 N          58.3827   88.0610    7.1438 N.ar    1  UNL1       -0.1010
     24 N          58.6945   87.2685    8.3786 N.ar    1  UNL1       -0.0919
     25 C          59.9156   87.8635    9.0151 C.ar    1  UNL1        0.3126
     26 O          60.3584   89.0236    8.1736 O.2     1  UNL1       -0.4006
     27 N          60.5776   87.3827   10.2723 N.pl3   1  UNL1       -0.2664
     28 H          60.3498   87.7945   11.1371 H       1  UNL1        0.1566
     29 C          61.5867   86.2746   10.2120 C.ar    1  UNL1        0.0541
     30 C          62.2514   85.9354    8.9108 C.ar    1  UNL1        0.0172
     31 C          63.2605   84.8273    8.8505 C.ar    1  UNL1        0.0332
     32 C          63.6050   84.0583   10.0914 C.ar    1  UNL1        0.1675
     33 F          64.6142   82.9502   10.0310 F       1  UNL1       -0.2018
     34 C          62.9404   84.3975   11.3927 C.ar    1  UNL1        0.1686
     35 F          63.2850   83.6284   12.6336 F       1  UNL1       -0.2018
     36 C          61.9313   85.5056   11.4530 C.ar    1  UNL1        0.0467
@<TRIPOS>UNITY_ATOM_ATTR
19 1
charge -1
@<TRIPOS>BOND
     1    19    20   ar
     2    20    21   ar
     3    20    18    1
     4    12    18    1
     5    12    13    1
     6    13    14    1
     7    14    15    1
     8    15    11    1
     9    11     5    1
    10     5     6   ar
    11     6     7   ar
    12     7     8   ar
    13     8     1    1
    14     1     2   am
    15     2     3    2
    16     2    22    1
    17    22    23   ar
    18    23    24   ar
    19    24    25   ar
    20    25    27    1
    21    27    29    1
    22    29    30   ar
    23    30    31   ar
    24    31    32   ar
    25    32    33    1
    26    32    34   ar
    27    34    35    1
    28    34    36   ar
    29    25    26   ar
    30     8     9   ar
    31     9    10   ar
    32    15    16    1
    33    16    17    1
    34    17    12    1
    35    10     5   ar
    36    26    22   ar
    37    36    29   ar
    38     1     4    1
    39    27    28    1
@<TRIPOS>MOLECULE
*****
 36 39 0 0 0
SMALL
GASTEIGER

@<TRIPOS>ATOM
      1 N          64.6837   88.1348   15.2830 N.am    1  UNL1       -0.2752
      2 C          64.3100   89.0820   14.1815 C.2     1  UNL1        0.3050
      3 O          63.4747   88.6028   13.0315 O.2     1  UNL1       -0.2646
      4 H          65.2320   88.4493   16.0378 H       1  UNL1        0.1554
      5 C          63.2985   83.8557   15.1372 C.ar    1  UNL1        0.2248
      6 C          64.5676   84.2572   14.4455 C.ar    1  UNL1        0.0590
      7 C          65.0292   85.6836   14.4941 C.ar    1  UNL1        0.0211
      8 C          64.2219   86.7084   15.2344 C.ar    1  UNL1        0.0703
      9 C          62.9530   86.3069   15.9261 C.ar    1  UNL1        0.1167
     10 N          62.4913   84.8805   15.8775 N.ar    1  UNL1       -0.2088
     11 O          62.8369   82.4293   15.0886 O.3     1  UNL1       -0.4640
     12 C          62.7908   80.2114   11.1734 C.3     1  UNL1        0.0058
     13 C          62.4855   79.4857   12.4502 C.3     1  UNL1        0.0041
     14 C          62.5009   80.2250   13.7552 C.3     1  UNL1        0.0436
     15 C          62.8215   81.6900   13.7836 C.3     1  UNL1        0.1675
     16 C          63.1268   82.4157   12.5068 C.3     1  UNL1        0.0436
     17 C          63.1115   81.6764   11.2018 C.3     1  UNL1        0.0041
     18 C          62.7755   79.4721    9.8684 C.3     1  UNL1        0.0417
     19 O          64.4631   77.8203    8.7850 O.co2   1  UNL1       -0.5492
     20 C          63.3730   78.0993    9.7770 C.2     1  UNL1        0.0503
     21 O          62.8805   77.0055   10.6775 O.co2   1  UNL1       -0.5492
     22 C          64.7718   90.5083   14.2301 C.ar    1  UNL1        0.3052
     23 N          64.8926   91.3544   15.4628 N.ar    1  UNL1       -0.1010
     24 N          65.3893   92.7079   15.0492 N.ar    1  UNL1       -0.0919
     25 C          65.5754   92.6984   13.5607 C.ar    1  UNL1        0.3126
     26 O          65.1937   91.3389   13.0546 O.2     1  UNL1       -0.4006
     27 N          66.0583   93.8467   12.7252 N.pl3   1  UNL1       -0.2664
     28 H          65.9051   94.7720   13.0246 H       1  UNL1        0.1566
     29 C          66.7747   93.5853   11.4335 C.ar    1  UNL1        0.0541
     30 C          67.5217   92.2995   11.2371 C.ar    1  UNL1        0.0172
     31 C          68.2381   92.0381    9.9454 C.ar    1  UNL1        0.0332
     32 C          68.2074   93.0624    8.8502 C.ar    1  UNL1        0.1675
     33 F          68.9238   92.8009    7.5584 F       1  UNL1       -0.2018
     34 C          67.4604   94.3482    9.0465 C.ar    1  UNL1        0.1686
     35 F          67.4297   95.3726    7.9512 F       1  UNL1       -0.2018
     36 C          66.7440   94.6097   10.3382 C.ar    1  UNL1        0.0467
@<TRIPOS>UNITY_ATOM_ATTR
19 1
charge -1
@<TRIPOS>BOND
     1    19    20   ar
     2    20    21   ar
     3    20    18    1
     4    12    18    1
     5    12    13    1
     6    13    14    1
     7    14    15    1
     8    15    11    1
     9    11     5    1
    10     5     6   ar
    11     6     7   ar
    12     7     8   ar
    13     8     1    1
    14     1     2   am
    15     2     3    2
    16     2    22    1
    17    22    23   ar
    18    23    24   ar
    19    24    25   ar
    20    25    27    1
    21    27    29    1
    22    29    30   ar
    23    30    31   ar
    24    31    32   ar
    25    32    33    1
    26    32    34   ar
    27    34    35    1
    28    34    36   ar
    29    25    26   ar
    30     8     9   ar
    31     9    10   ar
    32    15    16    1
    33    16    17    1
    34    17    12    1
    35    10     5   ar
    36    26    22   ar
    37    36    29   ar
    38     1     4    1
    39    27    28    1
@<TRIPOS>MOLECULE
*****
 36 39 0 0 0
SMALL
GASTEIGER

@<TRIPOS>ATOM
      1 N          64.5476   87.9378   14.5661 N.am    1  UNL1       -0.2752
      2 C          63.8776   88.9934   15.3947 C.2     1  UNL1        0.3050
      3 O          62.6503   88.6569   16.1888 O.2     1  UNL1       -0.2646
      4 H          65.3531   88.1587   14.0449 H       1  UNL1        0.1554
      5 C          62.8759   83.7610   14.4625 C.ar    1  UNL1        0.2248
      6 C          63.7000   84.2103   15.6326 C.ar    1  UNL1        0.0590
      7 C          64.2572   85.6025   15.6671 C.ar    1  UNL1        0.0211
      8 C          63.9904   86.5455   14.5315 C.ar    1  UNL1        0.0703
      9 C          63.1664   86.0963   13.3614 C.ar    1  UNL1        0.1167
     10 N          62.6091   84.7040   13.3269 N.ar    1  UNL1       -0.2088
     11 O          62.3187   82.3688   14.4280 O.3     1  UNL1       -0.4640
     12 C          62.8887   79.8071   10.7725 C.3     1  UNL1        0.0058
     13 C          63.1508   81.2823   10.7028 C.3     1  UNL1        0.0041
     14 C          62.9608   82.1362   11.9213 C.3     1  UNL1        0.0436
     15 C          62.5087   81.5149   13.2095 C.3     1  UNL1        0.1675
     16 C          62.2466   80.0397   13.2792 C.3     1  UNL1        0.0436
     17 C          62.4366   79.1858   12.0607 C.3     1  UNL1        0.0041
     18 C          63.0787   78.9532    9.5540 C.3     1  UNL1        0.0417
     19 O          63.0715   76.6122   10.6809 O.co2   1  UNL1       -0.5492
     20 C          63.6526   77.5737    9.6869 C.2     1  UNL1        0.0503
     21 O          64.8075   77.1557    8.8258 O.co2   1  UNL1       -0.5492
     22 C          64.4349   90.3856   15.4292 C.ar    1  UNL1        0.3052
     23 N          63.9883   91.4918   16.3386 N.ar    1  UNL1       -0.1010
     24 N          64.8140   92.7059   16.0318 N.ar    1  UNL1       -0.0919
     25 C          65.7708   92.3501   14.9328 C.ar    1  UNL1        0.3126
     26 O          65.5365   90.9161   14.5604 O.2     1  UNL1       -0.4006
     27 N          66.7841   93.2673   14.3147 N.pl3   1  UNL1       -0.2664
     28 H          67.4432   93.7273   14.8832 H       1  UNL1        0.1566
     29 C          66.7932   93.4837   12.8304 C.ar    1  UNL1        0.0541
     30 C          66.2397   94.7531   12.2541 C.ar    1  UNL1        0.0172
     31 C          66.2488   94.9694   10.7699 C.ar    1  UNL1        0.0332
     32 C          66.8113   93.9164    9.8619 C.ar    1  UNL1        0.1675
     33 F          66.8203   94.1328    8.3775 F       1  UNL1       -0.2018
     34 C          67.3647   92.6469   10.4381 C.ar    1  UNL1        0.1686
     35 F          67.9272   91.5938    9.5301 F       1  UNL1       -0.2018
     36 C          67.3557   92.4305   11.9224 C.ar    1  UNL1        0.0467
@<TRIPOS>UNITY_ATOM_ATTR
19 1
charge -1
@<TRIPOS>BOND
     1    19    20   ar
     2    20    21   ar
     3    20    18    1
     4    12    18    1
     5    12    13    1
     6    13    14    1
     7    14    15    1
     8    15    11    1
     9    11     5    1
    10     5     6   ar
    11     6     7   ar
    12     7     8   ar
    13     8     1    1
    14     1     2   am
    15     2     3    2
    16     2    22    1
    17    22    23   ar
    18    23    24   ar
    19    24    25   ar
    20    25    27    1
    21    27    29    1
    22    29    30   ar
    23    30    31   ar
    24    31    32   ar
    25    32    33    1
    26    32    34   ar
    27    34    35    1
    28    34    36   ar
    29    25    26   ar
    30     8     9   ar
    31     9    10   ar
    32    15    16    1
    33    16    17    1
    34    17    12    1
    35    10     5   ar
    36    26    22   ar
    37    36    29   ar
    38     1     4    1
    39    27    28    1
@<TRIPOS>MOLECULE
*****
 36 39 0 0 0
SMALL
GASTEIGER

@<TRIPOS>ATOM
      1 N          63.5839   89.0513   15.4867 N.am    1  UNL1       -0.2752
      2 C          64.2017   87.6972   15.3003 C.2     1  UNL1        0.3050
      3 O          65.5726   87.5739   14.7040 O.2     1  UNL1       -0.2646
      4 H          62.6842   89.1322   15.8781 H       1  UNL1        0.1554
      5 C          65.8431   92.7438   14.2568 C.ar    1  UNL1        0.2248
      6 C          65.5238   91.6868   13.2414 C.ar    1  UNL1        0.0590
      7 C          64.7708   90.4560   13.6514 C.ar    1  UNL1        0.0211
      8 C          64.3370   90.2822   15.0767 C.ar    1  UNL1        0.0703
      9 C          64.6562   91.3391   16.0921 C.ar    1  UNL1        0.1167
     10 N          65.4093   92.5699   15.6821 N.ar    1  UNL1       -0.2088
     11 O          66.5961   93.9745   13.8468 O.3     1  UNL1       -0.4640
     12 C          65.5544   96.0745   10.0056 C.3     1  UNL1        0.0058
     13 C          66.1153   96.8537   11.1580 C.3     1  UNL1        0.0041
     14 C          66.4626   96.1537   12.4384 C.3     1  UNL1        0.0436
     15 C          66.2488   94.6745   12.5664 C.3     1  UNL1        0.1675
     16 C          65.6879   93.8954   11.4139 C.3     1  UNL1        0.0436
     17 C          65.3406   94.5954   10.1335 C.3     1  UNL1        0.0041
     18 C          65.2071   96.7745    8.7252 C.3     1  UNL1        0.0417
     19 O          65.5111   96.8005    6.1451 O.co2   1  UNL1       -0.5492
     20 C          66.0828   96.6091    7.5186 C.2     1  UNL1        0.0503
     21 O          67.5301   96.2523    7.6856 O.co2   1  UNL1       -0.5492
     22 C          63.4487   86.4665   15.7103 C.ar    1  UNL1        0.3052
     23 N          62.4046   86.3886   16.7844 N.ar    1  UNL1       -0.1010
     24 N          61.9181   84.9715   16.8561 N.ar    1  UNL1       -0.0919
     25 C          62.6616   84.1736   15.8262 C.ar    1  UNL1        0.3126
     26 O          63.6075   85.0975   15.1181 O.2     1  UNL1       -0.4006
     27 N          62.4894   82.7088   15.5525 N.pl3   1  UNL1       -0.2664
     28 H          62.2749   82.0922   16.2895 H       1  UNL1        0.1566
     29 C          62.6439   82.1835   14.1561 C.ar    1  UNL1        0.0541
     30 C          62.4629   80.7202   13.8809 C.ar    1  UNL1        0.0172
     31 C          62.6174   80.1949   12.4844 C.ar    1  UNL1        0.0332
     32 C          62.9529   81.1329   11.3631 C.ar    1  UNL1        0.1675
     33 F          63.1075   80.6075    9.9666 F       1  UNL1       -0.2018
     34 C          63.1339   82.5963   11.6382 C.ar    1  UNL1        0.1686
     35 F          63.4694   83.5344   10.5169 F       1  UNL1       -0.2018
     36 C          62.9794   83.1216   13.0347 C.ar    1  UNL1        0.0467
@<TRIPOS>UNITY_ATOM_ATTR
19 1
charge -1
@<TRIPOS>BOND
     1    19    20   ar
     2    20    21   ar
     3    20    18    1
     4    12    18    1
     5    12    13    1
     6    13    14    1
     7    14    15    1
     8    15    11    1
     9    11     5    1
    10     5     6   ar
    11     6     7   ar
    12     7     8   ar
    13     8     1    1
    14     1     2   am
    15     2     3    2
    16     2    22    1
    17    22    23   ar
    18    23    24   ar
    19    24    25   ar
    20    25    27    1
    21    27    29    1
    22    29    30   ar
    23    30    31   ar
    24    31    32   ar
    25    32    33    1
    26    32    34   ar
    27    34    35    1
    28    34    36   ar
    29    25    26   ar
    30     8     9   ar
    31     9    10   ar
    32    15    16    1
    33    16    17    1
    34    17    12    1
    35    10     5   ar
    36    26    22   ar
    37    36    29   ar
    38     1     4    1
    39    27    28    1
