@<TRIPOS>MOLECULE
*****
 33 37 0 0 0
SMALL
GASTEIGER

@<TRIPOS>ATOM
      1 C          62.9842   81.4916   12.5781 C.ar    1  UNL1        0.2928
      2 C          63.1463   80.8485   11.2328 C.ar    1  UNL1        0.0754
      3 C          63.5105   81.6836   10.0412 C.ar    1  UNL1        0.0079
      4 C          63.7126   83.1620   10.1950 C.ar    1  UNL1        0.0196
      5 C          63.5505   83.8051   11.5403 C.ar    1  UNL1        0.0888
      6 N          63.6849   85.2281   11.9953 N.ar    1  UNL1       -0.2408
      7 C          63.4039   85.2724   13.4681 C.ar    1  UNL1        0.1285
      8 C          63.3887   86.4033   14.4534 C.ar    1  UNL1        0.1526
      9 N          63.0654   86.1386   15.8940 N.ar    1  UNL1       -0.2091
     10 C          62.7572   84.7429   16.3492 C.ar    1  UNL1        0.1763
     11 N          62.7723   83.6121   15.3639 N.ar    1  UNL1       -0.3346
     12 C          63.0956   83.8768   13.9233 C.ar    1  UNL1        0.0858
     13 C          63.1863   82.9700   12.7319 C.ar    1  UNL1        0.1041
     14 H          62.5700   82.6961   15.6627 H       1  UNL1        0.1675
     15 N          63.6969   87.7989   13.9982 N.pl3   1  UNL1       -0.2891
     16 C          64.5034   88.7122   14.8730 C.3     1  UNL1        0.1095
     17 C          64.8116   90.1079   14.4177 C.3     1  UNL1        0.0939
     18 N          64.3133   90.5902   13.0876 N.3     1  UNL1       -0.2695
     19 C          63.5067   89.6768   12.2128 C.3     1  UNL1        0.0939
     20 C          63.1986   88.2813   12.6681 C.3     1  UNL1        0.1095
     21 C          64.6215   91.9858   12.6324 C.3     1  UNL1        0.0769
     22 C          66.0391   92.4761   12.6239 C.3     1  UNL1        0.0437
     23 C          66.5431   93.2934   11.4716 C.ar    1  UNL1       -0.0184
     24 C          66.2471   94.7624   11.4078 C.ar    1  UNL1       -0.0018
     25 C          66.7512   95.5797   10.2554 C.ar    1  UNL1        0.0316
     26 C          67.5513   94.9279    9.1668 C.ar    1  UNL1        0.1674
     27 F          68.0554   95.7452    8.0144 F       1  UNL1       -0.2018
     28 C          67.8473   93.4588    9.2306 C.ar    1  UNL1        0.1671
     29 F          68.6474   92.8070    8.1420 F       1  UNL1       -0.2018
     30 C          67.3433   92.6416   10.3829 C.ar    1  UNL1        0.0277
     31 O          61.1803   80.4872   14.1551 O.2     1  UNL1        0.0415
     32 N          62.6200   80.6565   13.7697 N.pl3   1  UNL1        0.0810
     33 O          63.6954   79.9906   14.5759 O.co2   1  UNL1       -0.5760
@<TRIPOS>UNITY_ATOM_ATTR
32 1
charge 1
33 1
charge -1
@<TRIPOS>BOND
     1    31    32    2
     2    32    33    1
     3    32     1    1
     4     1     2   ar
     5     2     3   ar
     6     3     4   ar
     7     4     5   ar
     8     5     6   ar
     9     6     7   ar
    10     7     8   ar
    11     8    15    1
    12    15    16    1
    13    16    17    1
    14    17    18    1
    15    18    21    1
    16    21    22    1
    17    22    23    1
    18    23    24   ar
    19    24    25   ar
    20    25    26   ar
    21    26    27    1
    22    26    28   ar
    23    28    29    1
    24    28    30   ar
    25    18    19    1
    26    19    20    1
    27     8     9   ar
    28     9    10   ar
    29    10    11   ar
    30    11    12   ar
    31    12    13   ar
    32    13     1   ar
    33    13     5   ar
    34    12     7    1
    35    20    15    1
    36    30    23   ar
    37    11    14    1
@<TRIPOS>MOLECULE
*****
 33 37 0 0 0
SMALL
GASTEIGER

@<TRIPOS>ATOM
      1 C          66.3810   93.1063   13.9198 C.ar    1  UNL1        0.2928
      2 C          66.8778   94.4035   13.3537 C.ar    1  UNL1        0.0754
      3 C          66.4263   94.8507   11.9950 C.ar    1  UNL1        0.0079
      4 C          65.4781   94.0008   11.2023 C.ar    1  UNL1        0.0196
      5 C          64.9813   92.7036   11.7683 C.ar    1  UNL1        0.0888
      6 N          64.0482   91.6628   11.2241 N.ar    1  UNL1       -0.2408
      7 C          63.9230   90.5723   12.2464 C.ar    1  UNL1        0.1285
      8 C          63.1405   89.2927   12.2583 C.ar    1  UNL1        0.1526
      9 N          63.2135   88.3799   13.4463 N.ar    1  UNL1       -0.2091
     10 C          64.0692   88.7467   14.6224 C.ar    1  UNL1        0.1763
     11 N          64.8518   90.0264   14.6105 N.ar    1  UNL1       -0.3346
     12 C          64.7787   90.9392   13.4225 C.ar    1  UNL1        0.0858
     13 C          65.4327   92.2564   13.1271 C.ar    1  UNL1        0.1041
     14 H          65.4133   90.2671   15.3825 H       1  UNL1        0.1675
     15 N          62.2848   88.9258   11.0822 N.pl3   1  UNL1       -0.2891
     16 C          62.4483   87.5880   10.4240 C.3     1  UNL1        0.1095
     17 C          61.5926   87.2212    9.2478 C.3     1  UNL1        0.0939
     18 N          60.5734   88.1923    8.7299 N.3     1  UNL1       -0.2695
     19 C          60.4099   89.5302    9.3881 C.3     1  UNL1        0.0939
     20 C          61.2656   89.8970   10.5642 C.3     1  UNL1        0.1095
     21 C          59.7178   87.8254    7.5538 C.3     1  UNL1        0.0769
     22 C          58.6192   88.7451    7.1096 C.3     1  UNL1        0.0437
     23 C          58.9159   89.8598    6.1509 C.ar    1  UNL1       -0.0184
     24 C          57.8107   90.7577    5.6795 C.ar    1  UNL1       -0.0018
     25 C          58.1075   91.8725    4.7207 C.ar    1  UNL1        0.0316
     26 C          59.5095   92.0894    4.2333 C.ar    1  UNL1        0.1674
     27 F          59.8062   93.2041    3.2746 F       1  UNL1       -0.2018
     28 C          60.6147   91.1914    4.7047 C.ar    1  UNL1        0.1671
     29 F          62.0166   91.4082    4.2174 F       1  UNL1       -0.2018
     30 C          60.3179   90.0767    5.6635 C.ar    1  UNL1        0.0277
     31 O          65.8459   92.5699   16.4049 O.2     1  UNL1        0.0415
     32 N          66.8324   92.6590   15.2785 N.pl3   1  UNL1        0.0810
     33 O          68.2704   92.3009   15.5108 O.co2   1  UNL1       -0.5760
@<TRIPOS>UNITY_ATOM_ATTR
32 1
charge 1
33 1
charge -1
@<TRIPOS>BOND
     1    31    32    2
     2    32    33    1
     3    32     1    1
     4     1     2   ar
     5     2     3   ar
     6     3     4   ar
     7     4     5   ar
     8     5     6   ar
     9     6     7   ar
    10     7     8   ar
    11     8    15    1
    12    15    16    1
    13    16    17    1
    14    17    18    1
    15    18    21    1
    16    21    22    1
    17    22    23    1
    18    23    24   ar
    19    24    25   ar
    20    25    26   ar
    21    26    27    1
    22    26    28   ar
    23    28    29    1
    24    28    30   ar
    25    18    19    1
    26    19    20    1
    27     8     9   ar
    28     9    10   ar
    29    10    11   ar
    30    11    12   ar
    31    12    13   ar
    32    13     1   ar
    33    13     5   ar
    34    12     7    1
    35    20    15    1
    36    30    23   ar
    37    11    14    1
@<TRIPOS>MOLECULE
*****
 33 37 0 0 0
SMALL
GASTEIGER

@<TRIPOS>ATOM
      1 C          63.9964   83.4221   13.5394 C.ar    1  UNL1        0.2928
      2 C          63.9249   81.9455   13.2858 C.ar    1  UNL1        0.0754
      3 C          63.1851   81.4250   12.0892 C.ar    1  UNL1        0.0079
      4 C          62.5169   82.3811   11.1463 C.ar    1  UNL1        0.0196
      5 C          62.5884   83.8577   11.3999 C.ar    1  UNL1        0.0888
      6 N          62.0322   85.0328   10.6516 N.ar    1  UNL1       -0.2408
      7 C          62.4282   86.2795   11.3857 C.ar    1  UNL1        0.1285
      8 C          62.1629   87.7308   11.1149 C.ar    1  UNL1        0.1526
      9 N          62.6985   88.7776   12.0462 N.ar    1  UNL1       -0.2091
     10 C          63.4995   88.3731   13.2482 C.ar    1  UNL1        0.1763
     11 N          63.7648   86.9218   13.5189 N.ar    1  UNL1       -0.3346
     12 C          63.2291   85.8750   12.5877 C.ar    1  UNL1        0.0858
     13 C          63.3282   84.3783   12.5965 C.ar    1  UNL1        0.1041
     14 H          64.2905   86.6563   14.3078 H       1  UNL1        0.1675
     15 N          61.3619   88.1353    9.9129 N.pl3   1  UNL1       -0.2891
     16 C          61.0194   89.5787    9.6910 C.3     1  UNL1        0.1095
     17 C          60.2184   89.9832    8.4889 C.3     1  UNL1        0.0939
     18 N          59.7600   88.9443    7.5089 N.3     1  UNL1       -0.2695
     19 C          60.1025   87.5008    7.7308 C.3     1  UNL1        0.0939
     20 C          60.9034   87.0964    8.9328 C.3     1  UNL1        0.1095
     21 C          58.9590   89.3488    6.3068 C.3     1  UNL1        0.0769
     22 C          58.8483   90.7970    5.9320 C.3     1  UNL1        0.0437
     23 C          59.7324   91.3643    4.8612 C.ar    1  UNL1       -0.0184
     24 C          59.2011   92.4094    3.9257 C.ar    1  UNL1       -0.0018
     25 C          60.0852   92.9767    2.8548 C.ar    1  UNL1        0.0316
     26 C          61.5006   92.4988    2.7196 C.ar    1  UNL1        0.1674
     27 F          62.3847   93.0661    1.6488 F       1  UNL1       -0.2018
     28 C          62.0319   91.4536    3.6552 C.ar    1  UNL1        0.1671
     29 F          63.4473   90.9757    3.5201 F       1  UNL1       -0.2018
     30 C          61.1479   90.8864    4.7260 C.ar    1  UNL1        0.0277
     31 O          64.3202   83.5245   16.1152 O.2     1  UNL1        0.0415
     32 N          64.7361   83.9426   14.7360 N.pl3   1  UNL1        0.0810
     33 O          65.8918   84.8813   14.5535 O.co2   1  UNL1       -0.5760
@<TRIPOS>UNITY_ATOM_ATTR
32 1
charge 1
33 1
charge -1
@<TRIPOS>BOND
     1    31    32    2
     2    32    33    1
     3    32     1    1
     4     1     2   ar
     5     2     3   ar
     6     3     4   ar
     7     4     5   ar
     8     5     6   ar
     9     6     7   ar
    10     7     8   ar
    11     8    15    1
    12    15    16    1
    13    16    17    1
    14    17    18    1
    15    18    21    1
    16    21    22    1
    17    22    23    1
    18    23    24   ar
    19    24    25   ar
    20    25    26   ar
    21    26    27    1
    22    26    28   ar
    23    28    29    1
    24    28    30   ar
    25    18    19    1
    26    19    20    1
    27     8     9   ar
    28     9    10   ar
    29    10    11   ar
    30    11    12   ar
    31    12    13   ar
    32    13     1   ar
    33    13     5   ar
    34    12     7    1
    35    20    15    1
    36    30    23   ar
    37    11    14    1
@<TRIPOS>MOLECULE
*****
 33 37 0 0 0
SMALL
GASTEIGER

@<TRIPOS>ATOM
      1 C          64.3599   88.1054   14.3699 C.ar    1  UNL1        0.2928
      2 C          64.9322   89.3324   15.0156 C.ar    1  UNL1        0.0754
      3 C          64.6728   90.6841   14.4193 C.ar    1  UNL1        0.0079
      4 C          63.8412   90.8088   13.1772 C.ar    1  UNL1        0.0196
      5 C          63.2689   89.5819   12.5315 C.ar    1  UNL1        0.0888
      6 N          62.4179   89.3943   11.3106 N.ar    1  UNL1       -0.2408
      7 C          62.1513   87.9267   11.1523 C.ar    1  UNL1        0.1285
      8 C          61.3723   87.1525   10.1306 C.ar    1  UNL1        0.1526
      9 N          61.2795   85.6588   10.2321 N.ar    1  UNL1       -0.2091
     10 C          61.9658   84.9394   11.3552 C.ar    1  UNL1        0.1763
     11 N          62.7448   85.7136   12.3769 N.ar    1  UNL1       -0.3346
     12 C          62.8375   87.2073   12.2754 C.ar    1  UNL1        0.0858
     13 C          63.5283   88.2302   13.1278 C.ar    1  UNL1        0.1041
     14 H          63.1952   85.2414   13.1140 H       1  UNL1        0.1675
     15 N          60.6860   87.8720    9.0075 N.pl3   1  UNL1       -0.2891
     16 C          60.0587   87.0927    7.8900 C.3     1  UNL1        0.1095
     17 C          59.3725   87.8122    6.7668 C.3     1  UNL1        0.0939
     18 N          59.3135   89.3110    6.7613 N.3     1  UNL1       -0.2695
     19 C          59.9408   90.0904    7.8790 C.3     1  UNL1        0.0939
     20 C          60.6270   89.3709    9.0020 C.3     1  UNL1        0.1095
     21 C          58.6272   90.0305    5.6382 C.3     1  UNL1        0.0769
     22 C          58.9796   91.4566    5.3348 C.3     1  UNL1        0.0437
     23 C          60.0664   91.7671    4.3486 C.ar    1  UNL1       -0.0184
     24 C          59.8232   92.7625    3.2533 C.ar    1  UNL1       -0.0018
     25 C          60.9101   93.0730    2.2671 C.ar    1  UNL1        0.0316
     26 C          62.2401   92.3880    2.3764 C.ar    1  UNL1        0.1674
     27 F          63.3269   92.6985    1.3903 F       1  UNL1       -0.2018
     28 C          62.4833   91.3926    3.4719 C.ar    1  UNL1        0.1671
     29 F          63.8133   90.7076    3.5812 F       1  UNL1       -0.2018
     30 C          61.3965   91.0821    4.4579 C.ar    1  UNL1        0.0277
     31 O          63.4826   85.9493   15.5238 O.2     1  UNL1        0.0415
     32 N          64.6193   86.7537   14.9662 N.pl3   1  UNL1        0.0810
     33 O          66.0153   86.2064   15.0050 O.co2   1  UNL1       -0.5760
@<TRIPOS>UNITY_ATOM_ATTR
32 1
charge 1
33 1
charge -1
@<TRIPOS>BOND
     1    31    32    2
     2    32    33    1
     3    32     1    1
     4     1     2   ar
     5     2     3   ar
     6     3     4   ar
     7     4     5   ar
     8     5     6   ar
     9     6     7   ar
    10     7     8   ar
    11     8    15    1
    12    15    16    1
    13    16    17    1
    14    17    18    1
    15    18    21    1
    16    21    22    1
    17    22    23    1
    18    23    24   ar
    19    24    25   ar
    20    25    26   ar
    21    26    27    1
    22    26    28   ar
    23    28    29    1
    24    28    30   ar
    25    18    19    1
    26    19    20    1
    27     8     9   ar
    28     9    10   ar
    29    10    11   ar
    30    11    12   ar
    31    12    13   ar
    32    13     1   ar
    33    13     5   ar
    34    12     7    1
    35    20    15    1
    36    30    23   ar
    37    11    14    1
@<TRIPOS>MOLECULE
*****
 33 37 0 0 0
SMALL
GASTEIGER

@<TRIPOS>ATOM
      1 C          63.0094   81.3454   12.5927 C.ar    1  UNL1        0.2928
      2 C          63.0937   80.6495   11.2666 C.ar    1  UNL1        0.0754
      3 C          63.3403   81.4428   10.0177 C.ar    1  UNL1        0.0079
      4 C          63.5026   82.9320   10.0948 C.ar    1  UNL1        0.0196
      5 C          63.4184   83.6279   11.4210 C.ar    1  UNL1        0.0888
      6 N          63.5375   85.0728   11.8056 N.ar    1  UNL1       -0.2408
      7 C          63.3645   85.1726   13.2922 C.ar    1  UNL1        0.1285
      8 C          63.3835   86.3443   14.2286 C.ar    1  UNL1        0.1526
      9 N          63.1766   86.1327   15.6991 N.ar    1  UNL1       -0.2091
     10 C          62.9506   84.7494   16.2332 C.ar    1  UNL1        0.1763
     11 N          62.9315   83.5777   15.2969 N.ar    1  UNL1       -0.3346
     12 C          63.1385   83.7892   13.8264 C.ar    1  UNL1        0.0858
     13 C          63.1718   82.8346   12.6699 C.ar    1  UNL1        0.1041
     14 H          62.7832   82.6697   15.6475 H       1  UNL1        0.1675
     15 N          63.6096   87.7276   13.6944 N.pl3   1  UNL1       -0.2891
     16 C          64.3821   88.7270   14.5033 C.3     1  UNL1        0.1095
     17 C          64.6081   90.1103   13.9691 C.3     1  UNL1        0.0939
     18 N          64.0615   90.4942   12.6260 N.3     1  UNL1       -0.2695
     19 C          63.2890   89.4948   11.8171 C.3     1  UNL1        0.0939
     20 C          63.0630   88.1116   12.3513 C.3     1  UNL1        0.1095
     21 C          64.2876   91.8776   12.0919 C.3     1  UNL1        0.0769
     22 C          65.6841   92.4018   11.9343 C.3     1  UNL1        0.0437
     23 C          66.6242   92.3948   13.1031 C.ar    1  UNL1       -0.0184
     24 C          68.0660   92.0326   12.9038 C.ar    1  UNL1       -0.0018
     25 C          69.0061   92.0255   14.0727 C.ar    1  UNL1        0.0316
     26 C          68.5043   92.3807   15.4409 C.ar    1  UNL1        0.1674
     27 F          69.4444   92.3737   16.6097 F       1  UNL1       -0.2018
     28 C          67.0624   92.7430   15.6403 C.ar    1  UNL1        0.1671
     29 F          66.5606   93.0982   17.0085 F       1  UNL1       -0.2018
     30 C          66.1224   92.7500   14.4714 C.ar    1  UNL1        0.0277
     31 O          63.9029   79.8601   14.5281 O.2     1  UNL1        0.0415
     32 N          62.7628   80.5521   13.8417 N.pl3   1  UNL1        0.0810
     33 O          61.3760   80.4508   14.4042 O.co2   1  UNL1       -0.5760
@<TRIPOS>UNITY_ATOM_ATTR
32 1
charge 1
33 1
charge -1
@<TRIPOS>BOND
     1    31    32    2
     2    32    33    1
     3    32     1    1
     4     1     2   ar
     5     2     3   ar
     6     3     4   ar
     7     4     5   ar
     8     5     6   ar
     9     6     7   ar
    10     7     8   ar
    11     8    15    1
    12    15    16    1
    13    16    17    1
    14    17    18    1
    15    18    21    1
    16    21    22    1
    17    22    23    1
    18    23    24   ar
    19    24    25   ar
    20    25    26   ar
    21    26    27    1
    22    26    28   ar
    23    28    29    1
    24    28    30   ar
    25    18    19    1
    26    19    20    1
    27     8     9   ar
    28     9    10   ar
    29    10    11   ar
    30    11    12   ar
    31    12    13   ar
    32    13     1   ar
    33    13     5   ar
    34    12     7    1
    35    20    15    1
    36    30    23   ar
    37    11    14    1
@<TRIPOS>MOLECULE
*****
 33 37 0 0 0
SMALL
GASTEIGER

@<TRIPOS>ATOM
      1 C          63.1329   81.7834   12.4254 C.ar    1  UNL1        0.2928
      2 C          63.3059   81.5600   10.9523 C.ar    1  UNL1        0.0754
      3 C          63.6336   82.7142   10.0520 C.ar    1  UNL1        0.0079
      4 C          63.7882   84.0918   10.6248 C.ar    1  UNL1        0.0196
      5 C          63.6153   84.3152   12.0979 C.ar    1  UNL1        0.0888
      6 N          63.7065   85.5510   12.9432 N.ar    1  UNL1       -0.2408
      7 C          63.4352   85.1607   14.3659 C.ar    1  UNL1        0.1285
      8 C          63.3904   85.9593   15.6348 C.ar    1  UNL1        0.1526
      9 N          63.0868   85.2809   16.9377 N.ar    1  UNL1       -0.2091
     10 C          62.8279   83.8038   16.9717 C.ar    1  UNL1        0.1763
     11 N          62.8727   83.0052   15.7027 N.ar    1  UNL1       -0.3346
     12 C          63.1763   83.6836   14.3999 C.ar    1  UNL1        0.0858
     13 C          63.2876   83.1610   12.9982 C.ar    1  UNL1        0.1041
     14 H          62.7028   82.0357   15.7251 H       1  UNL1        0.1675
     15 N          63.6493   87.4364   15.6008 N.pl3   1  UNL1       -0.2891
     16 C          64.4891   88.0257   14.5066 C.3     1  UNL1        0.1095
     17 C          64.7479   89.5029   14.4727 C.3     1  UNL1        0.0939
     18 N          64.1670   90.3907   15.5330 N.3     1  UNL1       -0.2695
     19 C          63.3271   89.8014   16.6273 C.3     1  UNL1        0.0939
     20 C          63.0683   88.3243   16.6612 C.3     1  UNL1        0.1095
     21 C          64.4258   91.8678   15.4990 C.3     1  UNL1        0.0769
     22 C          65.7102   92.3912   14.9277 C.3     1  UNL1        0.0437
     23 C          65.7541   92.8893   13.5135 C.ar    1  UNL1       -0.0184
     24 C          66.5354   94.1248   13.1775 C.ar    1  UNL1       -0.0018
     25 C          66.5792   94.6229   11.7632 C.ar    1  UNL1        0.0316
     26 C          65.8419   93.8854   10.6851 C.ar    1  UNL1        0.1674
     27 F          65.8858   94.3836    9.2709 F       1  UNL1       -0.2018
     28 C          65.0606   92.6498   11.0212 C.ar    1  UNL1        0.1671
     29 F          64.3232   91.9123    9.9430 F       1  UNL1       -0.2018
     30 C          65.0168   92.1518   12.4353 C.ar    1  UNL1        0.0277
     31 O          61.5268   79.8684   13.1345 O.2     1  UNL1        0.0415
     32 N          62.8053   80.6292   13.3256 N.pl3   1  UNL1        0.0810
     33 O          63.7561   80.2359   14.4170 O.co2   1  UNL1       -0.5760
@<TRIPOS>UNITY_ATOM_ATTR
32 1
charge 1
33 1
charge -1
@<TRIPOS>BOND
     1    31    32    2
     2    32    33    1
     3    32     1    1
     4     1     2   ar
     5     2     3   ar
     6     3     4   ar
     7     4     5   ar
     8     5     6   ar
     9     6     7   ar
    10     7     8   ar
    11     8    15    1
    12    15    16    1
    13    16    17    1
    14    17    18    1
    15    18    21    1
    16    21    22    1
    17    22    23    1
    18    23    24   ar
    19    24    25   ar
    20    25    26   ar
    21    26    27    1
    22    26    28   ar
    23    28    29    1
    24    28    30   ar
    25    18    19    1
    26    19    20    1
    27     8     9   ar
    28     9    10   ar
    29    10    11   ar
    30    11    12   ar
    31    12    13   ar
    32    13     1   ar
    33    13     5   ar
    34    12     7    1
    35    20    15    1
    36    30    23   ar
    37    11    14    1
@<TRIPOS>MOLECULE
*****
 33 37 0 0 0
SMALL
GASTEIGER

@<TRIPOS>ATOM
      1 C          66.5122   93.5369   13.0308 C.ar    1  UNL1        0.2928
      2 C          67.2148   94.5016   12.1222 C.ar    1  UNL1        0.0754
      3 C          66.8124   94.6032   10.6807 C.ar    1  UNL1        0.0079
      4 C          65.7073   93.7401   10.1479 C.ar    1  UNL1        0.0196
      5 C          65.0047   92.7754   11.0565 C.ar    1  UNL1        0.0888
      6 N          63.8878   91.8031   10.8174 N.ar    1  UNL1       -0.2408
      7 C          63.5999   91.1006   12.1110 C.ar    1  UNL1        0.1285
      8 C          62.6040   90.0404   12.4775 C.ar    1  UNL1        0.1526
      9 N          62.5471   89.5183   13.8825 N.ar    1  UNL1       -0.2091
     10 C          63.4861   90.0564   14.9211 C.ar    1  UNL1        0.1763
     11 N          64.4820   91.1166   14.5547 N.ar    1  UNL1       -0.3346
     12 C          64.5389   91.6387   13.1496 C.ar    1  UNL1        0.0858
     13 C          65.4071   92.6738   12.4979 C.ar    1  UNL1        0.1041
     14 H          65.0983   91.4698   15.2364 H       1  UNL1        0.1675
     15 N          61.6650   89.5023   11.4389 N.pl3   1  UNL1       -0.2891
     16 C          61.7919   89.9453   10.0115 C.3     1  UNL1        0.1095
     17 C          60.8528   89.4072    8.9729 C.3     1  UNL1        0.0939
     18 N          59.7869   88.4261    9.3618 N.3     1  UNL1       -0.2695
     19 C          59.6600   87.9831   10.7892 C.3     1  UNL1        0.0939
     20 C          60.5990   88.5212   11.8277 C.3     1  UNL1        0.1095
     21 C          58.8479   87.8880    8.3232 C.3     1  UNL1        0.0769
     22 C          59.2289   86.6783    7.5221 C.3     1  UNL1        0.0437
     23 C          60.4861   85.9281    7.8486 C.ar    1  UNL1       -0.0184
     24 C          61.2363   85.2138    6.7639 C.ar    1  UNL1       -0.0018
     25 C          62.4936   84.4635    7.0905 C.ar    1  UNL1        0.0316
     26 C          63.0004   84.4275    8.5018 C.ar    1  UNL1        0.1674
     27 F          64.2576   83.6773    8.8283 F       1  UNL1       -0.2018
     28 C          62.2501   85.1419    9.5866 C.ar    1  UNL1        0.1671
     29 F          62.7569   85.1060   10.9979 F       1  UNL1       -0.2018
     30 C          60.9930   85.8921    9.2600 C.ar    1  UNL1        0.0277
     31 O          68.3670   93.4313   14.8469 O.2     1  UNL1        0.0415
     32 N          66.9146   93.4352   14.4722 N.pl3   1  UNL1        0.0810
     33 O          65.8646   93.3375   15.5389 O.co2   1  UNL1       -0.5760
@<TRIPOS>UNITY_ATOM_ATTR
32 1
charge 1
33 1
charge -1
@<TRIPOS>BOND
     1    31    32    2
     2    32    33    1
     3    32     1    1
     4     1     2   ar
     5     2     3   ar
     6     3     4   ar
     7     4     5   ar
     8     5     6   ar
     9     6     7   ar
    10     7     8   ar
    11     8    15    1
    12    15    16    1
    13    16    17    1
    14    17    18    1
    15    18    21    1
    16    21    22    1
    17    22    23    1
    18    23    24   ar
    19    24    25   ar
    20    25    26   ar
    21    26    27    1
    22    26    28   ar
    23    28    29    1
    24    28    30   ar
    25    18    19    1
    26    19    20    1
    27     8     9   ar
    28     9    10   ar
    29    10    11   ar
    30    11    12   ar
    31    12    13   ar
    32    13     1   ar
    33    13     5   ar
    34    12     7    1
    35    20    15    1
    36    30    23   ar
    37    11    14    1
