@<TRIPOS>MOLECULE
*****
 33 37 0 0 0
SMALL
GASTEIGER

@<TRIPOS>ATOM
      1 C          63.1064   88.8825   11.8525 C.ar    1  UNL1        0.1074
      2 C          62.3745   89.6157   10.7678 C.ar    1  UNL1        0.0588
      3 S          62.8095   91.0509   10.8035 S.2     1  UNL1       -0.0508
      4 C          63.8101   91.2045   11.9103 C.ar    1  UNL1        0.1646
      5 N          63.9936   89.8645   12.5586 N.ar    1  UNL1       -0.2224
      6 C          63.4641   85.4126   13.7451 C.ar    1  UNL1        0.2416
      7 N          63.5962   86.8717   13.4230 N.ar    1  UNL1       -0.2089
      8 C          62.9743   87.4235   12.1746 C.ar    1  UNL1        0.1026
      9 C          62.2201   86.5162   11.2481 C.ar    1  UNL1        0.0224
     10 C          62.0880   85.0571   11.5702 C.ar    1  UNL1        0.0239
     11 C          62.7099   84.5053   12.8187 C.ar    1  UNL1        0.1189
     12 N          62.5778   83.0463   13.1407 N.ar    1  UNL1       -0.2826
     13 C          62.2533   82.4661   14.4853 C.ar    1  UNL1        0.1826
     14 N          62.2219   80.9725   14.3503 N.ar    1  UNL1       -0.2280
     15 C          62.5269   80.6297   12.9223 C.ar    1  UNL1        0.0786
     16 C          62.5993   79.2477   12.3434 C.3     1  UNL1        0.0538
     17 C          62.7469   81.9113   12.1747 C.ar    1  UNL1        0.0963
     18 C          63.8838   85.5607   16.3047 C.3     1  UNL1        0.2543
     19 O          64.0860   84.8608   14.9936 O.3     1  UNL1       -0.4551
     20 N          64.5052   92.4753   12.3004 N.pl3   1  UNL1       -0.2786
     21 H          64.0163   93.3296   12.2815 H       1  UNL1        0.1555
     22 C          65.9453   92.4443   12.7191 C.ar    1  UNL1        0.1276
     23 C          66.4538   92.4655   14.1302 C.ar    1  UNL1        0.0244
     24 C          67.9524   92.4210   14.0835 C.ar    1  UNL1        0.0773
     25 N          68.3701   92.3723   12.6437 N.ar    1  UNL1       -0.1728
     26 N          67.1297   92.3867   11.8004 N.ar    1  UNL1       -0.2357
     27 C          68.4609   92.4422   15.4945 C.3     1  UNL1        0.0477
     28 C          67.2766   92.4998   16.4132 C.3     1  UNL1        0.0112
     29 C          66.0361   92.5142   15.5700 C.3     1  UNL1        0.0308
     30 C          67.0819   92.3499   10.3017 C.3     1  UNL1        0.1604
     31 C          68.3534   92.2409    9.5132 C.3     1  UNL1        0.1635
     32 O          69.5066   93.1495    9.8203 O.3     1  UNL1       -0.3799
     33 H          69.2627   94.0642    9.6093 H       1  UNL1        0.2105
@<TRIPOS>BOND
     1    18    19    1
     2    19     6    1
     3     6     7   ar
     4     7     8   ar
     5     8     1    1
     6     1     2   ar
     7     2     3   ar
     8     3     4   ar
     9     4    20    1
    10    20    22    1
    11    22    23   ar
    12    23    24   ar
    13    24    25   ar
    14    25    26   ar
    15    26    30    1
    16    30    31    1
    17    31    32    1
    18    24    27    1
    19    27    28    1
    20    28    29    1
    21     4     5   ar
    22     8     9   ar
    23     9    10   ar
    24    10    11   ar
    25    11    12    1
    26    12    13   ar
    27    13    14   ar
    28    14    15   ar
    29    15    16    1
    30    15    17   ar
    31    11     6   ar
    32    17    12   ar
    33     5     1   ar
    34    26    22   ar
    35    29    23    1
    36    20    21    1
    37    32    33    1
@<TRIPOS>MOLECULE
*****
 33 37 0 0 0
SMALL
GASTEIGER

@<TRIPOS>ATOM
      1 C          64.0251   88.8905   14.7370 C.ar    1  UNL1        0.1074
      2 C          63.5160   89.6935   15.8971 C.ar    1  UNL1        0.0588
      3 S          63.9829   91.1082   15.7220 S.2     1  UNL1       -0.0508
      4 C          64.7806   91.1795   14.4537 C.ar    1  UNL1        0.1646
      5 N          64.8066   89.8089   13.8450 N.ar    1  UNL1       -0.2224
      6 C          63.2041   85.4633   12.9122 C.ar    1  UNL1        0.2416
      7 N          63.4358   86.9276   13.1402 N.ar    1  UNL1       -0.2089
      8 C          63.7934   87.4262   14.5090 C.ar    1  UNL1        0.1026
      9 C          63.9192   86.4603   15.6499 C.ar    1  UNL1        0.0224
     10 C          63.6874   84.9960   15.4219 C.ar    1  UNL1        0.0239
     11 C          63.3299   84.4974   14.0531 C.ar    1  UNL1        0.1189
     12 N          63.0981   83.0331   13.8251 N.ar    1  UNL1       -0.2826
     13 C          64.0395   82.0878   13.1394 C.ar    1  UNL1        0.1826
     14 N          63.4075   80.7274   13.1333 N.ar    1  UNL1       -0.2280
     15 C          62.0756   80.8320   13.8152 C.ar    1  UNL1        0.0786
     16 C          61.1051   79.7088   14.0315 C.3     1  UNL1        0.0538
     17 C          61.8844   82.2570   14.2427 C.ar    1  UNL1        0.0963
     18 C          61.7270   85.6077   10.7798 C.3     1  UNL1        0.2543
     19 O          62.8466   84.9647   11.5434 O.3     1  UNL1       -0.4551
     20 N          65.4369   92.4060   13.8926 N.pl3   1  UNL1       -0.2786
     21 H          65.0199   93.2889   14.0187 H       1  UNL1        0.1555
     22 C          66.7287   92.2874   13.1394 C.ar    1  UNL1        0.1276
     23 C          66.9242   92.5553   11.6766 C.ar    1  UNL1        0.0244
     24 C          68.3681   92.3136   11.3499 C.ar    1  UNL1        0.0773
     25 N          69.0650   91.8962   12.6109 N.ar    1  UNL1       -0.1728
     26 N          68.0519   91.8800   13.7170 N.ar    1  UNL1       -0.2357
     27 C          68.5636   92.5815    9.8870 C.3     1  UNL1        0.0477
     28 C          67.2405   92.9889    9.3096 C.3     1  UNL1        0.0112
     29 C          66.2273   92.9727   10.4156 C.3     1  UNL1        0.0308
     30 C          68.3155   91.5198   15.1489 C.3     1  UNL1        0.1604
     31 C          68.1659   92.5563   16.2229 C.3     1  UNL1        0.1635
     32 O          66.8371   93.2135   16.4511 O.3     1  UNL1       -0.3799
     33 H          66.6033   93.7479   15.6761 H       1  UNL1        0.2105
@<TRIPOS>BOND
     1    18    19    1
     2    19     6    1
     3     6     7   ar
     4     7     8   ar
     5     8     1    1
     6     1     2   ar
     7     2     3   ar
     8     3     4   ar
     9     4    20    1
    10    20    22    1
    11    22    23   ar
    12    23    24   ar
    13    24    25   ar
    14    25    26   ar
    15    26    30    1
    16    30    31    1
    17    31    32    1
    18    24    27    1
    19    27    28    1
    20    28    29    1
    21     4     5   ar
    22     8     9   ar
    23     9    10   ar
    24    10    11   ar
    25    11    12    1
    26    12    13   ar
    27    13    14   ar
    28    14    15   ar
    29    15    16    1
    30    15    17   ar
    31    11     6   ar
    32    17    12   ar
    33     5     1   ar
    34    26    22   ar
    35    29    23    1
    36    20    21    1
    37    32    33    1
@<TRIPOS>MOLECULE
*****
 33 37 0 0 0
SMALL
GASTEIGER

@<TRIPOS>ATOM
      1 C          62.3907   89.6101   12.1063 C.ar    1  UNL1        0.1074
      2 C          61.0056   90.1840   12.0591 C.ar    1  UNL1        0.0588
      3 S          60.1024   89.1640   11.4315 S.2     1  UNL1       -0.0508
      4 C          60.9293   87.9598   11.0907 C.ar    1  UNL1        0.1646
      5 N          62.3434   88.2355   11.5078 N.ar    1  UNL1       -0.2224
      6 C          65.4183   92.1478   12.4843 C.ar    1  UNL1        0.2416
      7 N          64.2000   91.4667   11.9351 N.ar    1  UNL1       -0.2089
      8 C          63.6090   90.2912   12.6555 C.ar    1  UNL1        0.1026
      9 C          64.2364   89.7969   13.9252 C.ar    1  UNL1        0.0224
     10 C          65.4547   90.4780   14.4745 C.ar    1  UNL1        0.0239
     11 C          66.0457   91.6535   13.7540 C.ar    1  UNL1        0.1189
     12 N          67.2641   92.3347   14.3033 N.ar    1  UNL1       -0.2826
     13 C          68.6844   92.0487   13.9151 C.ar    1  UNL1        0.1826
     14 N          69.5741   92.9587   14.7090 N.ar    1  UNL1       -0.2280
     15 C          68.7036   93.8070   15.5879 C.ar    1  UNL1        0.0786
     16 C          69.1776   94.8568   16.5489 C.3     1  UNL1        0.0538
     17 C          67.2760   93.4214   15.3371 C.ar    1  UNL1        0.0963
     18 C          66.8092   93.1114   10.5128 C.3     1  UNL1        0.2543
     19 O          66.0093   93.3233   11.7639 O.3     1  UNL1       -0.4551
     20 N          60.4297   86.7008   10.4461 N.pl3   1  UNL1       -0.2786
     21 H          59.4702   86.4817   10.4722 H       1  UNL1        0.1555
     22 C          61.3919   85.7758    9.7617 C.ar    1  UNL1        0.1276
     23 C          62.4185   84.9149   10.4363 C.ar    1  UNL1        0.0244
     24 C          63.1576   84.1562    9.3741 C.ar    1  UNL1        0.0773
     25 N          62.5878   84.5483    8.0431 N.ar    1  UNL1       -0.1728
     26 N          61.4965   85.5492    8.2826 N.ar    1  UNL1       -0.2357
     27 C          64.1841   83.2954   10.0486 C.3     1  UNL1        0.0477
     28 C          64.0795   83.5220   11.5277 C.3     1  UNL1        0.0112
     29 C          62.9883   84.5229   11.7673 C.3     1  UNL1        0.0308
     30 C          60.6573   86.2079    7.2282 C.3     1  UNL1        0.1604
     31 C          59.5770   87.1709    7.6227 C.3     1  UNL1        0.1635
     32 O          58.2010   86.6655    7.9401 O.3     1  UNL1       -0.3799
     33 H          57.8009   86.2920    7.1392 H       1  UNL1        0.2105
@<TRIPOS>BOND
     1    18    19    1
     2    19     6    1
     3     6     7   ar
     4     7     8   ar
     5     8     1    1
     6     1     2   ar
     7     2     3   ar
     8     3     4   ar
     9     4    20    1
    10    20    22    1
    11    22    23   ar
    12    23    24   ar
    13    24    25   ar
    14    25    26   ar
    15    26    30    1
    16    30    31    1
    17    31    32    1
    18    24    27    1
    19    27    28    1
    20    28    29    1
    21     4     5   ar
    22     8     9   ar
    23     9    10   ar
    24    10    11   ar
    25    11    12    1
    26    12    13   ar
    27    13    14   ar
    28    14    15   ar
    29    15    16    1
    30    15    17   ar
    31    11     6   ar
    32    17    12   ar
    33     5     1   ar
    34    26    22   ar
    35    29    23    1
    36    20    21    1
    37    32    33    1
@<TRIPOS>MOLECULE
*****
 33 37 0 0 0
SMALL
GASTEIGER

@<TRIPOS>ATOM
      1 C          63.5608   87.3874   15.0661 C.ar    1  UNL1        0.1074
      2 C          63.1407   87.7915   16.4482 C.ar    1  UNL1        0.0588
      3 S          63.4673   89.2447   16.6257 S.2     1  UNL1       -0.0508
      4 C          64.0893   89.7387   15.3533 C.ar    1  UNL1        0.1646
      5 N          64.1471   88.5909   14.3894 N.ar    1  UNL1       -0.2224
      6 C          62.7889   84.4989   12.4564 C.ar    1  UNL1        0.2416
      7 N          62.9302   85.8664   13.0565 N.ar    1  UNL1       -0.2089
      8 C          63.4195   86.0200   14.4661 C.ar    1  UNL1        0.1026
      9 C          63.7676   84.8060   15.2757 C.ar    1  UNL1        0.0224
     10 C          63.6263   83.4386   14.6756 C.ar    1  UNL1        0.0239
     11 C          63.1369   83.2850   13.2660 C.ar    1  UNL1        0.1189
     12 N          62.9956   81.9175   12.6659 N.ar    1  UNL1       -0.2826
     13 C          62.6552   80.6597   13.4088 C.ar    1  UNL1        0.1826
     14 N          62.6191   79.5326   12.4196 N.ar    1  UNL1       -0.2280
     15 C          62.9373   80.0939   11.0655 C.ar    1  UNL1        0.0786
     16 C          63.0100   79.3175    9.7841 C.3     1  UNL1        0.0538
     17 C          63.1700   81.5678   11.2178 C.ar    1  UNL1        0.0963
     18 C          62.4705   85.4682   10.0671 C.3     1  UNL1        0.2543
     19 O          62.2996   84.3453   11.0468 O.3     1  UNL1       -0.4551
     20 N          64.5692   91.1355   15.0908 N.pl3   1  UNL1       -0.2786
     21 H          64.7405   91.7467   15.8433 H       1  UNL1        0.1555
     22 C          64.7880   91.6009   13.6817 C.ar    1  UNL1        0.1276
     23 C          63.9340   91.2579   12.4972 C.ar    1  UNL1        0.0244
     24 C          64.5175   91.9361   11.2931 C.ar    1  UNL1        0.0773
     25 N          65.7320   92.6983   11.7335 N.ar    1  UNL1       -0.1728
     26 N          65.8993   92.4912   13.2097 N.ar    1  UNL1       -0.2357
     27 C          63.6635   91.5931   10.1086 C.3     1  UNL1        0.0477
     28 C          62.5523   90.7029   10.5806 C.3     1  UNL1        0.0112
     29 C          62.7195   90.4958   12.0568 C.3     1  UNL1        0.0308
     30 C          66.9868   93.0722   14.0639 C.3     1  UNL1        0.1604
     31 C          68.2640   92.3133   14.2711 C.3     1  UNL1        0.1635
     32 O          68.9397   91.6503   13.1077 O.3     1  UNL1       -0.3799
     33 H          68.3778   90.9340   12.7727 H       1  UNL1        0.2105
@<TRIPOS>BOND
     1    18    19    1
     2    19     6    1
     3     6     7   ar
     4     7     8   ar
     5     8     1    1
     6     1     2   ar
     7     2     3   ar
     8     3     4   ar
     9     4    20    1
    10    20    22    1
    11    22    23   ar
    12    23    24   ar
    13    24    25   ar
    14    25    26   ar
    15    26    30    1
    16    30    31    1
    17    31    32    1
    18    24    27    1
    19    27    28    1
    20    28    29    1
    21     4     5   ar
    22     8     9   ar
    23     9    10   ar
    24    10    11   ar
    25    11    12    1
    26    12    13   ar
    27    13    14   ar
    28    14    15   ar
    29    15    16    1
    30    15    17   ar
    31    11     6   ar
    32    17    12   ar
    33     5     1   ar
    34    26    22   ar
    35    29    23    1
    36    20    21    1
    37    32    33    1
@<TRIPOS>MOLECULE
*****
 33 37 0 0 0
SMALL
GASTEIGER

@<TRIPOS>ATOM
      1 C          62.9589   88.8795   11.9419 C.ar    1  UNL1        0.1074
      2 C          61.9076   89.7716   11.3514 C.ar    1  UNL1        0.0588
      3 S          62.3904   91.1880   11.4542 S.2     1  UNL1       -0.0508
      4 C          63.7402   91.1713   12.1082 C.ar    1  UNL1        0.1646
      5 N          64.0915   89.7445   12.4096 N.ar    1  UNL1       -0.2224
      6 C          63.4790   85.1872   13.3009 C.ar    1  UNL1        0.2416
      7 N          63.5481   86.6820   13.1964 N.ar    1  UNL1       -0.2089
      8 C          62.8898   87.3847   12.0463 C.ar    1  UNL1        0.1026
      9 C          62.1623   86.5927   11.0006 C.ar    1  UNL1        0.0224
     10 C          62.0931   85.0979   11.1050 C.ar    1  UNL1        0.0239
     11 C          62.7515   84.3952   12.2551 C.ar    1  UNL1        0.1189
     12 N          62.6823   82.9004   12.3595 N.ar    1  UNL1       -0.2826
     13 C          63.1843   81.9212   11.3402 C.ar    1  UNL1        0.1826
     14 N          62.9113   80.5381   11.8523 N.ar    1  UNL1       -0.2280
     15 C          62.2405   80.6624   13.1882 C.ar    1  UNL1        0.0786
     16 C          61.7902   79.5262   14.0579 C.3     1  UNL1        0.0538
     17 C          62.0990   82.1224   13.5016 C.ar    1  UNL1        0.0963
     18 C          63.6500   84.7174   15.8503 C.3     1  UNL1        0.2543
     19 O          64.1373   84.4845   14.4510 O.3     1  UNL1       -0.4551
     20 N          64.5896   92.3707   12.4082 N.pl3   1  UNL1       -0.2786
     21 H          64.1733   93.1969   12.7450 H       1  UNL1        0.1555
     22 C          66.0732   92.3114   12.1951 C.ar    1  UNL1        0.1276
     23 C          66.7972   92.6672   10.9305 C.ar    1  UNL1        0.0244
     24 C          68.2648   92.4615   11.1630 C.ar    1  UNL1        0.0773
     25 N          68.4477   91.9785   12.5713 N.ar    1  UNL1       -0.1728
     26 N          67.0933   91.8857   13.2092 N.ar    1  UNL1       -0.2357
     27 C          68.9888   92.8173    9.8984 C.3     1  UNL1        0.0477
     28 C          67.9687   93.2429    8.8843 C.3     1  UNL1        0.0112
     29 C          66.6142   93.1501    9.5222 C.3     1  UNL1        0.0308
     30 C          66.8089   91.4448   14.6144 C.3     1  UNL1        0.1604
     31 C          67.5751   92.0419   15.7575 C.3     1  UNL1        0.1635
     32 O          69.0683   92.1603   15.6789 O.3     1  UNL1       -0.3799
     33 H          69.4626   91.2742   15.6645 H       1  UNL1        0.2105
@<TRIPOS>BOND
     1    18    19    1
     2    19     6    1
     3     6     7   ar
     4     7     8   ar
     5     8     1    1
     6     1     2   ar
     7     2     3   ar
     8     3     4   ar
     9     4    20    1
    10    20    22    1
    11    22    23   ar
    12    23    24   ar
    13    24    25   ar
    14    25    26   ar
    15    26    30    1
    16    30    31    1
    17    31    32    1
    18    24    27    1
    19    27    28    1
    20    28    29    1
    21     4     5   ar
    22     8     9   ar
    23     9    10   ar
    24    10    11   ar
    25    11    12    1
    26    12    13   ar
    27    13    14   ar
    28    14    15   ar
    29    15    16    1
    30    15    17   ar
    31    11     6   ar
    32    17    12   ar
    33     5     1   ar
    34    26    22   ar
    35    29    23    1
    36    20    21    1
    37    32    33    1
@<TRIPOS>MOLECULE
*****
 33 37 0 0 0
SMALL
GASTEIGER

@<TRIPOS>ATOM
      1 C          63.5008   87.7387   15.0496 C.ar    1  UNL1        0.1074
      2 C          63.3033   88.1252   16.4853 C.ar    1  UNL1        0.0588
      3 S          63.5240   89.6043   16.6017 S.2     1  UNL1       -0.0508
      4 C          63.8580   90.1319   15.2379 C.ar    1  UNL1        0.1646
      5 N          63.8437   88.9789   14.2786 N.ar    1  UNL1       -0.2224
      6 C          62.9948   84.7800   12.4534 C.ar    1  UNL1        0.2416
      7 N          63.1184   86.1638   13.0189 N.ar    1  UNL1       -0.2089
      8 C          63.3773   86.3549   14.4840 C.ar    1  UNL1        0.1026
      9 C          63.5125   85.1621   15.3836 C.ar    1  UNL1        0.0224
     10 C          63.3889   83.7784   14.8180 C.ar    1  UNL1        0.0239
     11 C          63.1301   83.5873   13.3529 C.ar    1  UNL1        0.1189
     12 N          63.0065   82.2035   12.7874 N.ar    1  UNL1       -0.2826
     13 C          62.7375   80.9522   13.5695 C.ar    1  UNL1        0.1826
     14 N          62.6950   79.8034   12.6059 N.ar    1  UNL1       -0.2280
     15 C          62.9377   80.3448   11.2283 C.ar    1  UNL1        0.0786
     16 C          62.9804   79.5435    9.9609 C.3     1  UNL1        0.0538
     17 C          63.1303   81.8281   11.3404 C.ar    1  UNL1        0.0963
     18 C          62.0728   85.6761   10.1958 C.3     1  UNL1        0.2543
     19 O          62.7360   84.5889   10.9883 O.3     1  UNL1       -0.4551
     20 N          64.1543   91.5615   14.8937 N.pl3   1  UNL1       -0.2786
     21 H          63.4866   92.2609   15.0787 H       1  UNL1        0.1555
     22 C          65.4679   91.9255   14.2677 C.ar    1  UNL1        0.1276
     23 C          66.7687   92.1098   14.9917 C.ar    1  UNL1        0.0244
     24 C          67.8161   92.4672   13.9792 C.ar    1  UNL1        0.0773
     25 N          67.1627   92.5039   12.6295 N.ar    1  UNL1       -0.1728
     26 N          65.7115   92.1690   12.8077 N.ar    1  UNL1       -0.2357
     27 C          69.1168   92.6516   14.7032 C.3     1  UNL1        0.0477
     28 C          68.8733   92.4080   16.1631 C.3     1  UNL1        0.0112
     29 C          67.4220   92.0732   16.3414 C.3     1  UNL1        0.0308
     30 C          64.6842   92.0914   11.7176 C.3     1  UNL1        0.1604
     31 C          63.7883   90.8926   11.6151 C.3     1  UNL1        0.1635
     32 O          62.4469   90.8992   12.2861 O.3     1  UNL1       -0.3799
     33 H          62.5668   90.9305   13.2482 H       1  UNL1        0.2105
@<TRIPOS>BOND
     1    18    19    1
     2    19     6    1
     3     6     7   ar
     4     7     8   ar
     5     8     1    1
     6     1     2   ar
     7     2     3   ar
     8     3     4   ar
     9     4    20    1
    10    20    22    1
    11    22    23   ar
    12    23    24   ar
    13    24    25   ar
    14    25    26   ar
    15    26    30    1
    16    30    31    1
    17    31    32    1
    18    24    27    1
    19    27    28    1
    20    28    29    1
    21     4     5   ar
    22     8     9   ar
    23     9    10   ar
    24    10    11   ar
    25    11    12    1
    26    12    13   ar
    27    13    14   ar
    28    14    15   ar
    29    15    16    1
    30    15    17   ar
    31    11     6   ar
    32    17    12   ar
    33     5     1   ar
    34    26    22   ar
    35    29    23    1
    36    20    21    1
    37    32    33    1
@<TRIPOS>MOLECULE
*****
 33 37 0 0 0
SMALL
GASTEIGER

@<TRIPOS>ATOM
      1 C          62.3648   89.6679   12.1320 C.ar    1  UNL1        0.1074
      2 C          60.9765   90.2357   12.1212 C.ar    1  UNL1        0.0588
      3 S          60.0684   89.2275   11.4817 S.2     1  UNL1       -0.0508
      4 C          60.8954   88.0367   11.0973 C.ar    1  UNL1        0.1646
      5 N          62.3146   88.3088   11.4992 N.ar    1  UNL1       -0.2224
      6 C          65.4135   92.1814   12.5023 C.ar    1  UNL1        0.2416
      7 N          64.1899   91.5084   11.9548 N.ar    1  UNL1       -0.2089
      8 C          63.5884   90.3409   12.6795 C.ar    1  UNL1        0.1026
      9 C          64.2104   89.8466   13.9519 C.ar    1  UNL1        0.0224
     10 C          65.4340   90.5196   14.4994 C.ar    1  UNL1        0.0239
     11 C          66.0356   91.6871   13.7746 C.ar    1  UNL1        0.1189
     12 N          67.2592   92.3601   14.3221 N.ar    1  UNL1       -0.2826
     13 C          68.6771   92.0643   13.9324 C.ar    1  UNL1        0.1826
     14 N          69.5739   92.9685   14.7249 N.ar    1  UNL1       -0.2280
     15 C          68.7102   93.8232   15.6044 C.ar    1  UNL1        0.0786
     16 C          69.1924   94.8702   16.5644 C.3     1  UNL1        0.0538
     17 C          67.2797   93.4472   15.3555 C.ar    1  UNL1        0.0963
     18 C          66.8591   93.1209   10.5587 C.3     1  UNL1        0.2543
     19 O          66.0151   93.3489   11.7775 O.3     1  UNL1       -0.4551
     20 N          60.3917   86.7921   10.4283 N.pl3   1  UNL1       -0.2786
     21 H          59.4290   86.5861   10.4328 H       1  UNL1        0.1555
     22 C          61.3547   85.8616    9.7526 C.ar    1  UNL1        0.1276
     23 C          61.3836   85.5327    8.2894 C.ar    1  UNL1        0.0244
     24 C          62.5047   84.5643    8.0539 C.ar    1  UNL1        0.0773
     25 N          63.1688   84.2948    9.3716 N.ar    1  UNL1       -0.1728
     26 N          62.4581   85.0965   10.4215 N.ar    1  UNL1       -0.2357
     27 C          62.5336   84.2354    6.5907 C.3     1  UNL1        0.0477
     28 C          61.4302   85.0005    5.9219 C.3     1  UNL1        0.0112
     29 C          60.7195   85.8022    6.9717 C.3     1  UNL1        0.0308
     30 C          62.7920   85.1277   11.8835 C.3     1  UNL1        0.1604
     31 C          63.2344   83.8743   12.5787 C.3     1  UNL1        0.1635
     32 O          62.7261   82.5409   12.1165 O.3     1  UNL1       -0.3799
     33 H          61.7708   82.4863   12.2756 H       1  UNL1        0.2105
@<TRIPOS>BOND
     1    18    19    1
     2    19     6    1
     3     6     7   ar
     4     7     8   ar
     5     8     1    1
     6     1     2   ar
     7     2     3   ar
     8     3     4   ar
     9     4    20    1
    10    20    22    1
    11    22    23   ar
    12    23    24   ar
    13    24    25   ar
    14    25    26   ar
    15    26    30    1
    16    30    31    1
    17    31    32    1
    18    24    27    1
    19    27    28    1
    20    28    29    1
    21     4     5   ar
    22     8     9   ar
    23     9    10   ar
    24    10    11   ar
    25    11    12    1
    26    12    13   ar
    27    13    14   ar
    28    14    15   ar
    29    15    16    1
    30    15    17   ar
    31    11     6   ar
    32    17    12   ar
    33     5     1   ar
    34    26    22   ar
    35    29    23    1
    36    20    21    1
    37    32    33    1
@<TRIPOS>MOLECULE
*****
 33 37 0 0 0
SMALL
GASTEIGER

@<TRIPOS>ATOM
      1 C          63.0740   88.9733   11.8495 C.ar    1  UNL1        0.1074
      2 C          62.1657   89.8551   11.0450 C.ar    1  UNL1        0.0588
      3 S          62.5707   91.2794   11.2847 S.2     1  UNL1       -0.0508
      4 C          63.7293   91.2778   12.2373 C.ar    1  UNL1        0.1646
      5 N          64.0404   89.8526   12.5864 N.ar    1  UNL1       -0.2224
      6 C          62.5739   85.1928   10.7506 C.ar    1  UNL1        0.2416
      7 N          62.6233   86.6909   10.6931 N.ar    1  UNL1       -0.2089
      8 C          63.0247   87.4753   11.9070 C.ar    1  UNL1        0.1026
      9 C          63.3768   86.7615   13.1786 C.ar    1  UNL1        0.0224
     10 C          63.3274   85.2634   13.2361 C.ar    1  UNL1        0.0239
     11 C          62.9260   84.4790   12.0221 C.ar    1  UNL1        0.1189
     12 N          62.8767   82.9810   12.0797 N.ar    1  UNL1       -0.2826
     13 C          63.3895   82.0410   11.0293 C.ar    1  UNL1        0.1826
     14 N          63.1356   80.6389   11.4981 N.ar    1  UNL1       -0.2280
     15 C          62.4659   80.7125   12.8383 C.ar    1  UNL1        0.0786
     16 C          62.0323   79.5437   13.6726 C.3     1  UNL1        0.0538
     17 C          62.3059   82.1599   13.1977 C.ar    1  UNL1        0.0963
     18 C          62.7622   84.7432    8.1987 C.3     1  UNL1        0.2543
     19 O          62.1725   84.4085    9.5367 O.3     1  UNL1       -0.4551
     20 N          64.4503   92.4889   12.7508 N.pl3   1  UNL1       -0.2786
     21 H          63.9542   93.3224   12.9195 H       1  UNL1        0.1555
     22 C          65.9270   92.4299   13.0071 C.ar    1  UNL1        0.1276
     23 C          66.5889   92.4282   14.3532 C.ar    1  UNL1        0.0244
     24 C          68.0721   92.3596   14.1404 C.ar    1  UNL1        0.0773
     25 N          68.3270   92.3189   12.6628 N.ar    1  UNL1       -0.1728
     26 N          67.0013   92.3624   11.9623 N.ar    1  UNL1       -0.2357
     27 C          68.7340   92.3579   15.4865 C.3     1  UNL1        0.0477
     28 C          67.6597   92.4255   16.5312 C.3     1  UNL1        0.0112
     29 C          66.3340   92.4690   15.8308 C.3     1  UNL1        0.0308
     30 C          66.7874   92.3418   10.4779 C.3     1  UNL1        0.1604
     31 C          67.7943   92.9782    9.5661 C.3     1  UNL1        0.1635
     32 O          69.2560   92.9034    9.8941 O.3     1  UNL1       -0.3799
     33 H          69.4314   93.4055   10.7053 H       1  UNL1        0.2105
@<TRIPOS>BOND
     1    18    19    1
     2    19     6    1
     3     6     7   ar
     4     7     8   ar
     5     8     1    1
     6     1     2   ar
     7     2     3   ar
     8     3     4   ar
     9     4    20    1
    10    20    22    1
    11    22    23   ar
    12    23    24   ar
    13    24    25   ar
    14    25    26   ar
    15    26    30    1
    16    30    31    1
    17    31    32    1
    18    24    27    1
    19    27    28    1
    20    28    29    1
    21     4     5   ar
    22     8     9   ar
    23     9    10   ar
    24    10    11   ar
    25    11    12    1
    26    12    13   ar
    27    13    14   ar
    28    14    15   ar
    29    15    16    1
    30    15    17   ar
    31    11     6   ar
    32    17    12   ar
    33     5     1   ar
    34    26    22   ar
    35    29    23    1
    36    20    21    1
    37    32    33    1
