@<TRIPOS>MOLECULE
*****
 30 33 0 0 0
SMALL
GASTEIGER

@<TRIPOS>ATOM
      1 C          63.3749   87.6349   12.6835 C.3     1  UNL1        0.0328
      2 C          62.4942   87.2622   11.5278 C.ar    1  UNL1        0.0002
      3 C          62.1952   85.8193   11.2475 C.ar    1  UNL1        0.0774
      4 N          61.3146   85.4466   10.0919 N.ar    1  UNL1       -0.2457
      5 C          60.7330   86.5168    9.2164 C.ar    1  UNL1        0.0814
      6 C          59.8524   86.1440    8.0607 C.ar    1  UNL1        0.0196
      7 C          59.2709   87.2142    7.1852 C.ar    1  UNL1        0.0082
      8 C          59.5700   88.6572    7.4654 C.ar    1  UNL1        0.0347
      9 BR         58.9884   89.7274    6.5899 Br      1  UNL1       -0.0490
     10 C          60.4506   89.0299    8.6211 C.ar    1  UNL1        0.0083
     11 C          61.0321   87.9597    9.4966 C.ar    1  UNL1        0.0222
     12 C          61.9127   88.3324   10.6523 C.ar    1  UNL1        0.0523
     13 C          62.7767   84.7491   12.1231 C.ar    1  UNL1        0.0173
     14 C          63.7617   83.7697   11.5567 C.ar    1  UNL1        0.0015
     15 C          64.3432   82.6996   12.4323 C.ar    1  UNL1        0.0000
     16 C          63.9398   82.6088   13.8741 C.ar    1  UNL1        0.0000
     17 C          62.9548   83.5881   14.4405 C.ar    1  UNL1        0.0000
     18 C          62.3733   84.6582   13.5650 C.ar    1  UNL1        0.0015
     19 C          62.2118   89.7753   10.9325 C.2     1  UNL1        0.2456
     20 O          61.3115   90.5665   11.8345 O.2     1  UNL1       -0.2702
     21 N          63.4112   90.4272   10.3107 N.am    1  UNL1       -0.3005
     22 H          64.0021   89.9079    9.7187 H       1  UNL1        0.1498
     23 C          63.7103   91.8701   10.5909 C.3     1  UNL1        0.0960
     24 C          65.0951   92.2851   10.9908 C.3     1  UNL1        0.0670
     25 C          65.4600   92.3793   12.4427 C.ar    1  UNL1        0.0607
     26 C          64.9767   91.3367   13.4067 C.ar    1  UNL1        0.0148
     27 C          65.3415   91.4310   14.8586 C.ar    1  UNL1        0.0028
     28 C          66.1896   92.5679   15.3465 C.ar    1  UNL1        0.0207
     29 C          66.6729   93.6105   14.3825 C.ar    1  UNL1        0.0984
     30 N          66.3080   93.5163   12.9306 N.ar    1  UNL1       -0.2481
@<TRIPOS>BOND
     1     1     2    1
     2     2     3   ar
     3     3    13    1
     4    13    14   ar
     5    14    15   ar
     6    15    16   ar
     7    16    17   ar
     8    17    18   ar
     9     3     4   ar
    10     4     5   ar
    11     5     6   ar
    12     6     7   ar
    13     7     8   ar
    14     8     9    1
    15     8    10   ar
    16    10    11   ar
    17    11    12   ar
    18    12    19    1
    19    19    20    2
    20    19    21   am
    21    21    23    1
    22    23    24    1
    23    24    25    1
    24    25    26   ar
    25    26    27   ar
    26    27    28   ar
    27    28    29   ar
    28    29    30   ar
    29    12     2   ar
    30    30    25   ar
    31    18    13   ar
    32    11     5   ar
    33    21    22    1
@<TRIPOS>MOLECULE
*****
 30 33 0 0 0
SMALL
GASTEIGER

@<TRIPOS>ATOM
      1 C          63.3797   87.5140   12.6649 C.3     1  UNL1        0.0328
      2 C          62.5069   87.1718   11.4939 C.ar    1  UNL1        0.0002
      3 C          62.2214   85.7363   11.1655 C.ar    1  UNL1        0.0774
      4 N          61.3487   85.3940    9.9946 N.ar    1  UNL1       -0.2457
      5 C          60.7613   86.4872    9.1519 C.ar    1  UNL1        0.0814
      6 C          59.8886   86.1449    7.9810 C.ar    1  UNL1        0.0196
      7 C          59.3013   87.2382    7.1384 C.ar    1  UNL1        0.0082
      8 C          59.5868   88.6737    7.4668 C.ar    1  UNL1        0.0347
      9 BR         58.9995   89.7669    6.6242 Br      1  UNL1       -0.0490
     10 C          60.4596   89.0159    8.6377 C.ar    1  UNL1        0.0083
     11 C          61.0468   87.9227    9.4803 C.ar    1  UNL1        0.0222
     12 C          61.9196   88.2650   10.6513 C.ar    1  UNL1        0.0523
     13 C          62.8087   84.6430   12.0081 C.ar    1  UNL1        0.0173
     14 C          63.7636   83.6587   11.4006 C.ar    1  UNL1        0.0015
     15 C          64.3509   82.5655   12.2432 C.ar    1  UNL1        0.0000
     16 C          63.9832   82.4567   13.6934 C.ar    1  UNL1        0.0000
     17 C          63.0283   83.4410   14.3009 C.ar    1  UNL1        0.0000
     18 C          62.4410   84.5342   13.4583 C.ar    1  UNL1        0.0015
     19 C          62.2051   89.7005   10.9797 C.2     1  UNL1        0.2456
     20 O          61.2272   90.4918   11.7967 O.2     1  UNL1       -0.2702
     21 N          63.4686   90.3447   10.4910 N.am    1  UNL1       -0.3005
     22 H          64.1104   89.8253    9.9548 H       1  UNL1        0.1498
     23 C          63.7540   91.7802   10.8194 C.3     1  UNL1        0.0960
     24 C          65.0766   92.1650   11.4132 C.3     1  UNL1        0.0670
     25 C          66.0243   93.0302   10.6364 C.ar    1  UNL1        0.0607
     26 C          67.2611   92.4337   10.0328 C.ar    1  UNL1        0.0148
     27 C          68.2088   93.2988    9.2559 C.ar    1  UNL1        0.0028
     28 C          67.9196   94.7605    9.0828 C.ar    1  UNL1        0.0207
     29 C          66.6828   95.3569    9.6864 C.ar    1  UNL1        0.0984
     30 N          65.7351   94.4918   10.4632 N.ar    1  UNL1       -0.2481
@<TRIPOS>BOND
     1     1     2    1
     2     2     3   ar
     3     3    13    1
     4    13    14   ar
     5    14    15   ar
     6    15    16   ar
     7    16    17   ar
     8    17    18   ar
     9     3     4   ar
    10     4     5   ar
    11     5     6   ar
    12     6     7   ar
    13     7     8   ar
    14     8     9    1
    15     8    10   ar
    16    10    11   ar
    17    11    12   ar
    18    12    19    1
    19    19    20    2
    20    19    21   am
    21    21    23    1
    22    23    24    1
    23    24    25    1
    24    25    26   ar
    25    26    27   ar
    26    27    28   ar
    27    28    29   ar
    28    29    30   ar
    29    12     2   ar
    30    30    25   ar
    31    18    13   ar
    32    11     5   ar
    33    21    22    1
@<TRIPOS>MOLECULE
*****
 30 33 0 0 0
SMALL
GASTEIGER

@<TRIPOS>ATOM
      1 C          61.8933   86.8571   11.9724 C.3     1  UNL1        0.0328
      2 C          62.5022   88.1947   11.6719 C.ar    1  UNL1        0.0002
      3 C          62.2049   88.8787   10.3705 C.ar    1  UNL1        0.0774
      4 N          62.8138   90.2162   10.0700 N.ar    1  UNL1       -0.2457
      5 C          63.7200   90.8697   11.0709 C.ar    1  UNL1        0.0814
      6 C          64.3289   92.2072   10.7704 C.ar    1  UNL1        0.0196
      7 C          65.2351   92.8606   11.7713 C.ar    1  UNL1        0.0082
      8 C          65.5324   92.1766   13.0727 C.ar    1  UNL1        0.0347
      9 BR         66.4386   92.8301   14.0736 Br      1  UNL1       -0.0490
     10 C          64.9235   90.8391   13.3732 C.ar    1  UNL1        0.0083
     11 C          64.0173   90.1857   12.3723 C.ar    1  UNL1        0.0222
     12 C          63.4084   88.8481   12.6728 C.ar    1  UNL1        0.0523
     13 C          61.2987   88.2252    9.3696 C.ar    1  UNL1        0.0173
     14 C          61.5308   86.7992    8.9665 C.ar    1  UNL1        0.0015
     15 C          60.6246   86.1458    7.9657 C.ar    1  UNL1        0.0000
     16 C          59.4862   86.9184    7.3679 C.ar    1  UNL1        0.0000
     17 C          59.2541   88.3444    7.7710 C.ar    1  UNL1        0.0000
     18 C          60.1604   88.9978    8.7718 C.ar    1  UNL1        0.0015
     19 C          63.7057   88.1640   13.9742 C.2     1  UNL1        0.2456
     20 O          63.4587   88.8777   15.2702 O.2     1  UNL1       -0.2702
     21 N          64.2501   86.7663   13.9796 N.am    1  UNL1       -0.3005
     22 H          64.4122   86.2978   13.1290 H       1  UNL1        0.1498
     23 C          64.5474   86.0822   15.2810 C.3     1  UNL1        0.0960
     24 C          63.8756   84.7837   15.6164 C.3     1  UNL1        0.0670
     25 C          63.5615   83.7990   14.5293 C.ar    1  UNL1        0.0607
     26 C          62.4447   82.8140   14.7093 C.ar    1  UNL1        0.0148
     27 C          62.1307   81.8293   13.6222 C.ar    1  UNL1        0.0028
     28 C          62.9334   81.8297   12.3551 C.ar    1  UNL1        0.0207
     29 C          64.0502   82.8147   12.1751 C.ar    1  UNL1        0.0984
     30 N          64.3642   83.7994   13.2622 N.ar    1  UNL1       -0.2481
@<TRIPOS>BOND
     1     1     2    1
     2     2     3   ar
     3     3    13    1
     4    13    14   ar
     5    14    15   ar
     6    15    16   ar
     7    16    17   ar
     8    17    18   ar
     9     3     4   ar
    10     4     5   ar
    11     5     6   ar
    12     6     7   ar
    13     7     8   ar
    14     8     9    1
    15     8    10   ar
    16    10    11   ar
    17    11    12   ar
    18    12    19    1
    19    19    20    2
    20    19    21   am
    21    21    23    1
    22    23    24    1
    23    24    25    1
    24    25    26   ar
    25    26    27   ar
    26    27    28   ar
    27    28    29   ar
    28    29    30   ar
    29    12     2   ar
    30    30    25   ar
    31    18    13   ar
    32    11     5   ar
    33    21    22    1
@<TRIPOS>MOLECULE
*****
 30 33 0 0 0
SMALL
GASTEIGER

@<TRIPOS>ATOM
      1 C          62.5569   84.7963   11.5095 C.3     1  UNL1        0.0328
      2 C          62.7310   86.2858   11.5468 C.ar    1  UNL1        0.0002
      3 C          62.3323   87.1173   10.3637 C.ar    1  UNL1        0.0774
      4 N          62.5064   88.6067   10.4010 N.ar    1  UNL1       -0.2457
      5 C          63.0792   89.2646   11.6213 C.ar    1  UNL1        0.0814
      6 C          63.2532   90.7539   11.6585 C.ar    1  UNL1        0.0196
      7 C          63.8260   91.4118   12.8788 C.ar    1  UNL1        0.0082
      8 C          64.2247   90.5803   14.0619 C.ar    1  UNL1        0.0347
      9 BR         64.7975   91.2382   15.2822 Br      1  UNL1       -0.0490
     10 C          64.0506   89.0909   14.0246 C.ar    1  UNL1        0.0083
     11 C          63.4779   88.4330   12.8043 C.ar    1  UNL1        0.0222
     12 C          63.3038   86.9436   12.7671 C.ar    1  UNL1        0.0523
     13 C          61.7595   86.4594    9.1434 C.ar    1  UNL1        0.0173
     14 C          60.3169   86.6651    8.7877 C.ar    1  UNL1        0.0015
     15 C          59.7442   86.0072    7.5674 C.ar    1  UNL1        0.0000
     16 C          60.6141   85.1436    6.7028 C.ar    1  UNL1        0.0000
     17 C          62.0567   84.9378    7.0586 C.ar    1  UNL1        0.0000
     18 C          62.6294   85.5957    8.2788 C.ar    1  UNL1        0.0015
     19 C          63.7024   86.1121   13.9501 C.2     1  UNL1        0.2456
     20 O          65.1339   86.0815   14.3971 O.2     1  UNL1       -0.2702
     21 N          62.6696   85.3111   14.6862 N.am    1  UNL1       -0.3005
     22 H          61.7300   85.3312   14.3928 H       1  UNL1        0.1498
     23 C          63.0682   84.4796   15.8692 C.3     1  UNL1        0.0960
     24 C          63.7844   83.1777   15.6638 C.3     1  UNL1        0.0670
     25 C          63.4447   82.3125   14.4865 C.ar    1  UNL1        0.0607
     26 C          64.2435   82.4199   13.2214 C.ar    1  UNL1        0.0148
     27 C          63.9038   81.5547   12.0442 C.ar    1  UNL1        0.0028
     28 C          62.7653   80.5820   12.1319 C.ar    1  UNL1        0.0207
     29 C          61.9666   80.4746   13.3970 C.ar    1  UNL1        0.0984
     30 N          62.3063   81.3398   14.5742 N.ar    1  UNL1       -0.2481
@<TRIPOS>BOND
     1     1     2    1
     2     2     3   ar
     3     3    13    1
     4    13    14   ar
     5    14    15   ar
     6    15    16   ar
     7    16    17   ar
     8    17    18   ar
     9     3     4   ar
    10     4     5   ar
    11     5     6   ar
    12     6     7   ar
    13     7     8   ar
    14     8     9    1
    15     8    10   ar
    16    10    11   ar
    17    11    12   ar
    18    12    19    1
    19    19    20    2
    20    19    21   am
    21    21    23    1
    22    23    24    1
    23    24    25    1
    24    25    26   ar
    25    26    27   ar
    26    27    28   ar
    27    28    29   ar
    28    29    30   ar
    29    12     2   ar
    30    30    25   ar
    31    18    13   ar
    32    11     5   ar
    33    21    22    1
@<TRIPOS>MOLECULE
*****
 30 33 0 0 0
SMALL
GASTEIGER

@<TRIPOS>ATOM
      1 C          65.9500   92.0079   13.4357 C.3     1  UNL1        0.0328
      2 C          64.8089   91.6293   12.5387 C.ar    1  UNL1        0.0002
      3 C          64.8609   91.9634   11.0773 C.ar    1  UNL1        0.0774
      4 N          63.7199   91.5849   10.1804 N.ar    1  UNL1       -0.2457
      5 C          62.5267   90.8721   10.7447 C.ar    1  UNL1        0.0814
      6 C          61.3857   90.4935    9.8477 C.ar    1  UNL1        0.0196
      7 C          60.1926   89.7807   10.4121 C.ar    1  UNL1        0.0082
      8 C          60.1406   89.4466   11.8735 C.ar    1  UNL1        0.0347
      9 BR         58.9475   88.7338   12.4379 Br      1  UNL1       -0.0490
     10 C          61.2817   89.8252   12.7705 C.ar    1  UNL1        0.0083
     11 C          62.4747   90.5379   12.2061 C.ar    1  UNL1        0.0222
     12 C          63.6159   90.9166   13.1031 C.ar    1  UNL1        0.0523
     13 C          66.0540   92.6762   10.5130 C.ar    1  UNL1        0.0173
     14 C          66.0371   94.1692   10.3694 C.ar    1  UNL1        0.0015
     15 C          67.2302   94.8819    9.8050 C.ar    1  UNL1        0.0000
     16 C          68.4402   94.1016    9.3843 C.ar    1  UNL1        0.0000
     17 C          68.4571   92.6087    9.5278 C.ar    1  UNL1        0.0000
     18 C          67.2641   91.8960   10.0922 C.ar    1  UNL1        0.0015
     19 C          63.5639   90.5824   14.5645 C.2     1  UNL1        0.2456
     20 O          63.5806   91.6806   15.5860 O.2     1  UNL1       -0.2702
     21 N          63.4951   89.1499   15.0043 N.am    1  UNL1       -0.3005
     22 H          63.4842   88.4291   14.3339 H       1  UNL1        0.1498
     23 C          63.4431   88.8158   16.4657 C.3     1  UNL1        0.0960
     24 C          63.0236   87.4450   16.9072 C.3     1  UNL1        0.0670
     25 C          63.3194   86.2554   16.0427 C.ar    1  UNL1        0.0607
     26 C          64.6431   86.1451   15.3458 C.ar    1  UNL1        0.0148
     27 C          64.9388   84.9555   14.4813 C.ar    1  UNL1        0.0028
     28 C          63.9108   83.8762   14.3137 C.ar    1  UNL1        0.0207
     29 C          62.5871   83.9864   15.0105 C.ar    1  UNL1        0.0984
     30 N          62.2914   85.1760   15.8750 N.ar    1  UNL1       -0.2481
@<TRIPOS>BOND
     1     1     2    1
     2     2     3   ar
     3     3    13    1
     4    13    14   ar
     5    14    15   ar
     6    15    16   ar
     7    16    17   ar
     8    17    18   ar
     9     3     4   ar
    10     4     5   ar
    11     5     6   ar
    12     6     7   ar
    13     7     8   ar
    14     8     9    1
    15     8    10   ar
    16    10    11   ar
    17    11    12   ar
    18    12    19    1
    19    19    20    2
    20    19    21   am
    21    21    23    1
    22    23    24    1
    23    24    25    1
    24    25    26   ar
    25    26    27   ar
    26    27    28   ar
    27    28    29   ar
    28    29    30   ar
    29    12     2   ar
    30    30    25   ar
    31    18    13   ar
    32    11     5   ar
    33    21    22    1
@<TRIPOS>MOLECULE
*****
 30 33 0 0 0
SMALL
GASTEIGER

@<TRIPOS>ATOM
      1 C          63.8137   91.7049    9.7133 C.3     1  UNL1        0.0328
      2 C          64.1765   91.7098   11.1688 C.ar    1  UNL1        0.0002
      3 C          65.2609   92.6178   11.6684 C.ar    1  UNL1        0.0774
      4 N          65.6236   92.6228   13.1238 N.ar    1  UNL1       -0.2457
      5 C          64.9020   91.7197   14.0798 C.ar    1  UNL1        0.0814
      6 C          65.2648   91.7246   15.5352 C.ar    1  UNL1        0.0196
      7 C          64.5432   90.8215   16.4910 C.ar    1  UNL1        0.0082
      8 C          63.4588   89.9135   15.9914 C.ar    1  UNL1        0.0347
      9 BR         62.7372   89.0104   16.9473 Br      1  UNL1       -0.0490
     10 C          63.0960   89.9085   14.5360 C.ar    1  UNL1        0.0083
     11 C          63.8176   90.8116   13.5802 C.ar    1  UNL1        0.0222
     12 C          63.4549   90.8067   12.1246 C.ar    1  UNL1        0.0523
     13 C          65.9825   93.5210   10.7125 C.ar    1  UNL1        0.0173
     14 C          67.1458   93.0002    9.9218 C.ar    1  UNL1        0.0015
     15 C          67.8674   93.9033    8.9659 C.ar    1  UNL1        0.0000
     16 C          67.4256   95.3272    8.8008 C.ar    1  UNL1        0.0000
     17 C          66.2622   95.8480    9.5915 C.ar    1  UNL1        0.0000
     18 C          65.5407   94.9449   10.5473 C.ar    1  UNL1        0.0015
     19 C          62.3705   89.8987   11.6250 C.2     1  UNL1        0.2456
     20 O          61.0043   90.4482   11.3398 O.2     1  UNL1       -0.2702
     21 N          62.6524   88.4410   11.4107 N.am    1  UNL1       -0.3005
     22 H          63.5491   88.0803   11.5979 H       1  UNL1        0.1498
     23 C          61.5680   87.5330   10.9111 C.3     1  UNL1        0.0960
     24 C          61.8273   86.0624   10.7694 C.3     1  UNL1        0.0670
     25 C          62.7202   85.3604   11.7491 C.ar    1  UNL1        0.0607
     26 C          63.2369   83.9862   11.4418 C.ar    1  UNL1        0.0148
     27 C          64.1298   83.2842   12.4216 C.ar    1  UNL1        0.0028
     28 C          64.5061   83.9565   13.7086 C.ar    1  UNL1        0.0207
     29 C          63.9895   85.3307   14.0158 C.ar    1  UNL1        0.0984
     30 N          63.0965   86.0327   13.0361 N.ar    1  UNL1       -0.2481
@<TRIPOS>BOND
     1     1     2    1
     2     2     3   ar
     3     3    13    1
     4    13    14   ar
     5    14    15   ar
     6    15    16   ar
     7    16    17   ar
     8    17    18   ar
     9     3     4   ar
    10     4     5   ar
    11     5     6   ar
    12     6     7   ar
    13     7     8   ar
    14     8     9    1
    15     8    10   ar
    16    10    11   ar
    17    11    12   ar
    18    12    19    1
    19    19    20    2
    20    19    21   am
    21    21    23    1
    22    23    24    1
    23    24    25    1
    24    25    26   ar
    25    26    27   ar
    26    27    28   ar
    27    28    29   ar
    28    29    30   ar
    29    12     2   ar
    30    30    25   ar
    31    18    13   ar
    32    11     5   ar
    33    21    22    1
@<TRIPOS>MOLECULE
*****
 30 33 0 0 0
SMALL
GASTEIGER

@<TRIPOS>ATOM
      1 C          63.9092   91.8673    9.7494 C.3     1  UNL1        0.0328
      2 C          64.2827   91.9011   11.2018 C.ar    1  UNL1        0.0002
      3 C          65.3525   92.8378   11.6795 C.ar    1  UNL1        0.0774
      4 N          65.7260   92.8716   13.1318 N.ar    1  UNL1       -0.2457
      5 C          65.0298   91.9686   14.1065 C.ar    1  UNL1        0.0814
      6 C          65.4033   92.0024   15.5588 C.ar    1  UNL1        0.0196
      7 C          64.7070   91.0996   16.5335 C.ar    1  UNL1        0.0082
      8 C          63.6372   90.1629   16.0558 C.ar    1  UNL1        0.0347
      9 BR         62.9410   89.2600   17.0305 Br      1  UNL1       -0.0490
     10 C          63.2637   90.1291   14.6035 C.ar    1  UNL1        0.0083
     11 C          63.9600   91.0320   13.6288 C.ar    1  UNL1        0.0222
     12 C          63.5865   90.9982   12.1764 C.ar    1  UNL1        0.0523
     13 C          66.0488   93.7407   10.7047 C.ar    1  UNL1        0.0173
     14 C          65.5838   95.1559   10.5294 C.ar    1  UNL1        0.0015
     15 C          66.2801   96.0588    9.5547 C.ar    1  UNL1        0.0000
     16 C          67.4413   95.5463    8.7553 C.ar    1  UNL1        0.0000
     17 C          67.9063   94.1311    8.9307 C.ar    1  UNL1        0.0000
     18 C          67.2100   93.2282    9.9054 C.ar    1  UNL1        0.0015
     19 C          62.5167   90.0615   11.6987 C.2     1  UNL1        0.2456
     20 O          61.1638   90.5938   11.3296 O.2     1  UNL1       -0.2702
     21 N          62.7998   88.5924   11.5902 N.am    1  UNL1       -0.3005
     22 H          63.6878   88.2430   11.8325 H       1  UNL1        0.1498
     23 C          61.7300   87.6557   11.1126 C.3     1  UNL1        0.0960
     24 C          62.0856   86.2570   10.7037 C.3     1  UNL1        0.0670
     25 C          61.8649   85.8101    9.2890 C.ar    1  UNL1        0.0607
     26 C          62.9849   85.1746    8.5198 C.ar    1  UNL1        0.0148
     27 C          62.7642   84.7277    7.1051 C.ar    1  UNL1        0.0028
     28 C          61.4234   84.9163    6.4595 C.ar    1  UNL1        0.0207
     29 C          60.3034   85.5518    7.2286 C.ar    1  UNL1        0.0984
     30 N          60.5242   85.9987    8.6434 N.ar    1  UNL1       -0.2481
@<TRIPOS>BOND
     1     1     2    1
     2     2     3   ar
     3     3    13    1
     4    13    14   ar
     5    14    15   ar
     6    15    16   ar
     7    16    17   ar
     8    17    18   ar
     9     3     4   ar
    10     4     5   ar
    11     5     6   ar
    12     6     7   ar
    13     7     8   ar
    14     8     9    1
    15     8    10   ar
    16    10    11   ar
    17    11    12   ar
    18    12    19    1
    19    19    20    2
    20    19    21   am
    21    21    23    1
    22    23    24    1
    23    24    25    1
    24    25    26   ar
    25    26    27   ar
    26    27    28   ar
    27    28    29   ar
    28    29    30   ar
    29    12     2   ar
    30    30    25   ar
    31    18    13   ar
    32    11     5   ar
    33    21    22    1
@<TRIPOS>MOLECULE
*****
 30 33 0 0 0
SMALL
GASTEIGER

@<TRIPOS>ATOM
      1 C          64.7398   88.1092   14.8947 C.3     1  UNL1        0.0328
      2 C          64.0428   88.6932   13.7017 C.ar    1  UNL1        0.0002
      3 C          64.1779   90.1554   13.3956 C.ar    1  UNL1        0.0774
      4 N          63.4810   90.7394   12.2027 N.ar    1  UNL1       -0.2457
      5 C          62.6490   89.8612   11.3157 C.ar    1  UNL1        0.0814
      6 C          61.9520   90.4452   10.1227 C.ar    1  UNL1        0.0196
      7 C          61.1201   89.5670    9.2359 C.ar    1  UNL1        0.0082
      8 C          60.9851   88.1048    9.5420 C.ar    1  UNL1        0.0347
      9 BR         60.1531   87.2266    8.6550 Br      1  UNL1       -0.0490
     10 C          61.6820   87.5208   10.7349 C.ar    1  UNL1        0.0083
     11 C          62.5139   88.3990   11.6218 C.ar    1  UNL1        0.0222
     12 C          63.2109   87.8150   12.8148 C.ar    1  UNL1        0.0523
     13 C          65.0099   91.0336   14.2826 C.ar    1  UNL1        0.0173
     14 C          66.3736   91.4719   13.8377 C.ar    1  UNL1        0.0015
     15 C          67.2055   92.3501   14.7246 C.ar    1  UNL1        0.0000
     16 C          66.6737   92.7899   16.0564 C.ar    1  UNL1        0.0000
     17 C          65.3099   92.3516   16.5013 C.ar    1  UNL1        0.0000
     18 C          64.4780   91.4734   15.6144 C.ar    1  UNL1        0.0015
     19 C          63.0759   86.3527   13.1209 C.2     1  UNL1        0.2456
     20 O          62.3198   85.4572   12.1848 O.2     1  UNL1       -0.2702
     21 N          63.6970   85.7861   14.3632 N.am    1  UNL1       -0.3005
     22 H          64.1932   86.3738   14.9776 H       1  UNL1        0.1498
     23 C          63.5619   84.3238   14.6693 C.3     1  UNL1        0.0960
     24 C          64.5027   83.3368   14.0443 C.3     1  UNL1        0.0670
     25 C          64.0752   82.5528   12.8390 C.ar    1  UNL1        0.0607
     26 C          64.4460   83.0276   11.4653 C.ar    1  UNL1        0.0148
     27 C          64.0186   82.2437   10.2600 C.ar    1  UNL1        0.0028
     28 C          63.2203   80.9850   10.4284 C.ar    1  UNL1        0.0207
     29 C          62.8495   80.5102   11.8021 C.ar    1  UNL1        0.0984
     30 N          63.2770   81.2941   13.0074 N.ar    1  UNL1       -0.2481
@<TRIPOS>BOND
     1     1     2    1
     2     2     3   ar
     3     3    13    1
     4    13    14   ar
     5    14    15   ar
     6    15    16   ar
     7    16    17   ar
     8    17    18   ar
     9     3     4   ar
    10     4     5   ar
    11     5     6   ar
    12     6     7   ar
    13     7     8   ar
    14     8     9    1
    15     8    10   ar
    16    10    11   ar
    17    11    12   ar
    18    12    19    1
    19    19    20    2
    20    19    21   am
    21    21    23    1
    22    23    24    1
    23    24    25    1
    24    25    26   ar
    25    26    27   ar
    26    27    28   ar
    27    28    29   ar
    28    29    30   ar
    29    12     2   ar
    30    30    25   ar
    31    18    13   ar
    32    11     5   ar
    33    21    22    1
@<TRIPOS>MOLECULE
*****
 30 33 0 0 0
SMALL
GASTEIGER

@<TRIPOS>ATOM
      1 C          62.3547   88.4616   12.6907 C.3     1  UNL1        0.0328
      2 C          63.3864   89.4930   13.0398 C.ar    1  UNL1        0.0002
      3 C          64.1660   89.3722   14.3156 C.ar    1  UNL1        0.0774
      4 N          65.1976   90.4035   14.6647 N.ar    1  UNL1       -0.2457
      5 C          65.4498   91.5558   13.7379 C.ar    1  UNL1        0.0814
      6 C          66.4815   92.5872   14.0870 C.ar    1  UNL1        0.0196
      7 C          66.7336   93.7394   13.1603 C.ar    1  UNL1        0.0082
      8 C          65.9540   93.8602   11.8845 C.ar    1  UNL1        0.0347
      9 BR         66.2061   95.0125   10.9577 Br      1  UNL1       -0.0490
     10 C          64.9223   92.8288   11.5354 C.ar    1  UNL1        0.0083
     11 C          64.6702   91.6766   12.4621 C.ar    1  UNL1        0.0222
     12 C          63.6385   90.6452   12.1131 C.ar    1  UNL1        0.0523
     13 C          63.9138   88.2199   15.2423 C.ar    1  UNL1        0.0173
     14 C          63.1608   88.4370   16.5213 C.ar    1  UNL1        0.0015
     15 C          62.9087   87.2847   17.4479 C.ar    1  UNL1        0.0000
     16 C          63.4096   85.9154   17.0956 C.ar    1  UNL1        0.0000
     17 C          64.1627   85.6984   15.8167 C.ar    1  UNL1        0.0000
     18 C          64.4148   86.8506   14.8900 C.ar    1  UNL1        0.0015
     19 C          62.8589   90.7660   10.8373 C.2     1  UNL1        0.2456
     20 O          63.4559   91.4748    9.6578 O.2     1  UNL1       -0.2702
     21 N          61.4822   90.1781   10.7410 N.am    1  UNL1       -0.3005
     22 H          61.0904   89.7129   11.5152 H       1  UNL1        0.1498
     23 C          60.7026   90.2989    9.4652 C.3     1  UNL1        0.0960
     24 C          59.8900   89.1394    8.9702 C.3     1  UNL1        0.0670
     25 C          60.5601   87.8361    8.6503 C.ar    1  UNL1        0.0607
     26 C          59.9201   86.8801    7.6877 C.ar    1  UNL1        0.0148
     27 C          60.5903   85.5768    7.3678 C.ar    1  UNL1        0.0028
     28 C          61.9003   85.2295    8.0105 C.ar    1  UNL1        0.0207
     29 C          62.5403   86.1854    8.9730 C.ar    1  UNL1        0.0984
     30 N          61.8702   87.4888    9.2929 N.ar    1  UNL1       -0.2481
@<TRIPOS>BOND
     1     1     2    1
     2     2     3   ar
     3     3    13    1
     4    13    14   ar
     5    14    15   ar
     6    15    16   ar
     7    16    17   ar
     8    17    18   ar
     9     3     4   ar
    10     4     5   ar
    11     5     6   ar
    12     6     7   ar
    13     7     8   ar
    14     8     9    1
    15     8    10   ar
    16    10    11   ar
    17    11    12   ar
    18    12    19    1
    19    19    20    2
    20    19    21   am
    21    21    23    1
    22    23    24    1
    23    24    25    1
    24    25    26   ar
    25    26    27   ar
    26    27    28   ar
    27    28    29   ar
    28    29    30   ar
    29    12     2   ar
    30    30    25   ar
    31    18    13   ar
    32    11     5   ar
    33    21    22    1
