@<TRIPOS>MOLECULE
*****
 37 40 0 0 0
SMALL
GASTEIGER

@<TRIPOS>ATOM
      1 C          60.7911   87.6495    9.7036 C.3     1  UNL1        0.0705
      2 C          59.7656   88.6045    9.1685 C.3     1  UNL1        0.0082
      3 C          59.1066   88.3352    7.8482 C.3     1  UNL1        0.0005
      4 C          59.4731   87.1109    7.0630 C.3     1  UNL1        0.0005
      5 C          60.4986   86.1558    7.5980 C.3     1  UNL1        0.0095
      6 C          61.1576   86.4251    8.9182 C.3     1  UNL1        0.0840
      7 C          62.1831   85.4700    9.4532 C.2     1  UNL1        0.2262
      8 O          63.4604   85.2419    8.7005 O.2     1  UNL1       -0.2748
      9 N          61.9313   84.7431   10.7409 N.am    1  UNL1       -0.2804
     10 H          61.0930   84.8928   11.2349 H       1  UNL1        0.1550
     11 C          62.9568   83.7881   11.2759 C.ar    1  UNL1        0.1083
     12 C          63.8799   82.9355   10.4567 C.ar    1  UNL1        0.1377
     13 N          64.7329   82.1384   11.3986 N.ar    1  UNL1       -0.1651
     14 N          64.3370   82.4983   12.7999 N.ar    1  UNL1       -0.2302
     15 C          64.9339   81.9372   14.0564 C.3     1  UNL1        0.1553
     16 C          63.2393   83.5178   12.7241 C.ar    1  UNL1        0.2147
     17 S          62.5459   84.1552   13.8915 S.O2    1  UNL1        0.0748
     18 N          61.8524   84.7925   15.0590 N.3     1  UNL1       -0.2021
     19 O          61.8248   82.8687   14.1656 O.2     1  UNL1       -0.1517
     20 O          63.2669   85.4416   13.6175 O.2     1  UNL1       -0.1517
     21 H          61.2330   84.1122   15.4993 H       1  UNL1        0.1443
     22 H          61.3057   85.5906   14.7355 H       1  UNL1        0.1443
     23 C          61.4502   87.9187   11.0238 C.2     1  UNL1        0.1731
     24 O          61.2094   86.9987   12.1838 O.2     1  UNL1       -0.2913
     25 C          64.1496   91.4869   11.5048 C.ar    1  UNL1        0.0194
     26 C          63.4399   91.2533   10.2042 C.ar    1  UNL1        0.0016
     27 C          62.5401   90.0639   10.0439 C.ar    1  UNL1        0.0029
     28 C          62.3500   89.1082   11.1842 C.ar    1  UNL1        0.0347
     29 C          63.0597   89.3417   12.4848 C.ar    1  UNL1        0.0029
     30 C          63.9595   90.5311   12.6452 C.ar    1  UNL1        0.0016
     31 C          66.9395   95.8490   10.4706 C.3     1  UNL1        0.0515
     32 C          66.3318   94.6813   11.1898 C.ar    1  UNL1        0.0535
     33 C          65.4128   93.6581   10.5910 C.ar    1  UNL1        0.0349
     34 C          65.0494   92.6763   11.6652 C.ar    1  UNL1        0.1018
     35 N          65.7439   93.0926   12.9279 N.ar    1  UNL1       -0.1730
     36 N          66.5364   94.3318   12.6341 N.ar    1  UNL1       -0.2798
     37 H          67.0931   94.8285   13.2764 H       1  UNL1        0.1886
@<TRIPOS>BOND
     1    31    32    1
     2    32    33   ar
     3    33    34   ar
     4    34    25    1
     5    25    26   ar
     6    26    27   ar
     7    27    28   ar
     8    28    23    1
     9    23    24    2
    10     1    23    1
    11     1     2    1
    12     2     3    1
    13     3     4    1
    14     4     5    1
    15     5     6    1
    16     6     7    1
    17     7     8    2
    18     7     9   am
    19     9    11    1
    20    11    12   ar
    21    12    13   ar
    22    13    14   ar
    23    14    15    1
    24    14    16   ar
    25    16    17    1
    26    17    18    1
    27    17    19    2
    28    17    20    2
    29    28    29   ar
    30    29    30   ar
    31    34    35   ar
    32    35    36   ar
    33    36    32   ar
    34    30    25   ar
    35     6     1    1
    36    16    11   ar
    37     9    10    1
    38    18    21    1
    39    18    22    1
    40    36    37    1
@<TRIPOS>MOLECULE
*****
 37 40 0 0 0
SMALL
GASTEIGER

@<TRIPOS>ATOM
      1 C          60.3715   87.5203    9.8214 C.3     1  UNL1        0.0705
      2 C          59.3423   87.9308    8.8104 C.3     1  UNL1        0.0082
      3 C          59.1446   87.1146    7.5675 C.3     1  UNL1        0.0005
      4 C          59.9763   85.8880    7.3355 C.3     1  UNL1        0.0005
      5 C          61.0055   85.4775    8.3465 C.3     1  UNL1        0.0095
      6 C          61.2032   86.2936    9.5895 C.3     1  UNL1        0.0840
      7 C          62.2324   85.8831   10.6005 C.2     1  UNL1        0.2262
      8 O          63.6038   85.4740   10.1510 O.2     1  UNL1       -0.2748
      9 N          61.8903   85.8816   12.0609 N.am    1  UNL1       -0.2804
     10 H          60.9902   86.1501   12.3559 H       1  UNL1        0.1550
     11 C          62.9196   85.4711   13.0719 C.ar    1  UNL1        0.1083
     12 C          63.8033   86.3956   13.8557 C.ar    1  UNL1        0.1377
     13 N          64.6757   85.5599   14.7448 N.ar    1  UNL1       -0.1651
     14 N          64.3312   84.1189   14.5106 N.ar    1  UNL1       -0.2302
     15 C          64.9613   82.9398   15.1907 C.3     1  UNL1        0.1553
     16 C          63.2458   84.0641   13.4766 C.ar    1  UNL1        0.2147
     17 S          62.6000   82.8205   12.9414 S.O2    1  UNL1        0.0748
     18 N          61.9542   81.5769   12.4063 N.3     1  UNL1       -0.2021
     19 O          61.7685   82.7169   14.1855 O.2     1  UNL1       -0.1517
     20 O          63.4315   82.9241   11.6974 O.2     1  UNL1       -0.1517
     21 H          61.2747   81.2286   13.0826 H       1  UNL1        0.1443
     22 H          62.6676   80.8661   12.2442 H       1  UNL1        0.1443
     23 C          60.5691   88.3364   11.0644 C.2     1  UNL1        0.1731
     24 O          59.6516   88.1518   12.2366 O.2     1  UNL1       -0.2913
     25 C          63.9147   91.3384   11.2767 C.ar    1  UNL1        0.0194
     26 C          63.6200   90.4592   12.4558 C.ar    1  UNL1        0.0016
     27 C          62.5048   89.4585   12.3850 C.ar    1  UNL1        0.0029
     28 C          61.6844   89.3371   11.1351 C.ar    1  UNL1        0.0347
     29 C          61.9791   90.2163    9.9561 C.ar    1  UNL1        0.0029
     30 C          63.0942   91.2169   10.0269 C.ar    1  UNL1        0.0016
     31 C          67.2207   95.2684   10.0495 C.3     1  UNL1        0.0515
     32 C          66.5495   94.1455   10.7834 C.ar    1  UNL1        0.0535
     33 C          65.3675   93.3585   10.3002 C.ar    1  UNL1        0.0349
     34 C          65.0299   92.3391   11.3475 C.ar    1  UNL1        0.1018
     35 N          66.0033   92.4960   12.4779 N.ar    1  UNL1       -0.1730
     36 N          66.9425   93.6124   12.1293 N.ar    1  UNL1       -0.2798
     37 H          67.6862   93.9381   12.6861 H       1  UNL1        0.1886
@<TRIPOS>BOND
     1    31    32    1
     2    32    33   ar
     3    33    34   ar
     4    34    25    1
     5    25    26   ar
     6    26    27   ar
     7    27    28   ar
     8    28    23    1
     9    23    24    2
    10     1    23    1
    11     1     2    1
    12     2     3    1
    13     3     4    1
    14     4     5    1
    15     5     6    1
    16     6     7    1
    17     7     8    2
    18     7     9   am
    19     9    11    1
    20    11    12   ar
    21    12    13   ar
    22    13    14   ar
    23    14    15    1
    24    14    16   ar
    25    16    17    1
    26    17    18    1
    27    17    19    2
    28    17    20    2
    29    28    29   ar
    30    29    30   ar
    31    34    35   ar
    32    35    36   ar
    33    36    32   ar
    34    30    25   ar
    35     6     1    1
    36    16    11   ar
    37     9    10    1
    38    18    21    1
    39    18    22    1
    40    36    37    1
@<TRIPOS>MOLECULE
*****
 37 40 0 0 0
SMALL
GASTEIGER

@<TRIPOS>ATOM
      1 C          60.3428   88.1336    9.9214 C.3     1  UNL1        0.0705
      2 C          59.7410   88.7920    8.7154 C.3     1  UNL1        0.0082
      3 C          59.6916   88.0595    7.4073 C.3     1  UNL1        0.0005
      4 C          60.2441   86.6688    7.3051 C.3     1  UNL1        0.0005
      5 C          60.8459   86.0103    8.5111 C.3     1  UNL1        0.0095
      6 C          60.8953   86.7427    9.8192 C.3     1  UNL1        0.0840
      7 C          61.4971   86.0843   11.0251 C.2     1  UNL1        0.2262
      8 O          60.9149   86.3339   12.3848 O.2     1  UNL1       -0.2748
      9 N          62.6811   85.1763   10.8714 N.am    1  UNL1       -0.2804
     10 H          63.0632   85.0124    9.9790 H       1  UNL1        0.1550
     11 C          63.2829   84.5179   12.0773 C.ar    1  UNL1        0.1083
     12 C          63.6806   85.2043   13.3504 C.ar    1  UNL1        0.1377
     13 N          64.2362   84.1681   14.2818 N.ar    1  UNL1       -0.1651
     14 N          64.1819   82.8412   13.5844 N.ar    1  UNL1       -0.2302
     15 C          64.6368   81.5286   14.1501 C.3     1  UNL1        0.1553
     16 C          63.5927   83.0574   12.2220 C.ar    1  UNL1        0.2147
     17 S          63.3551   81.9988   11.1861 S.O2    1  UNL1        0.0748
     18 N          63.1176   80.9403   10.1502 N.3     1  UNL1       -0.2021
     19 O          64.5428   82.4895   10.4123 O.2     1  UNL1       -0.1517
     20 O          62.1675   81.5082   11.9599 O.2     1  UNL1       -0.1517
     21 H          63.8252   81.0150    9.4193 H       1  UNL1        0.1443
     22 H          62.1917   81.0665    9.7412 H       1  UNL1        0.1443
     23 C          60.3922   88.8659   11.2295 C.2     1  UNL1        0.1731
     24 O          59.2128   88.8275   12.1555 O.2     1  UNL1       -0.2913
     25 C          64.0785   91.1783   12.3757 C.ar    1  UNL1        0.0194
     26 C          63.5769   91.2189   10.9626 C.ar    1  UNL1        0.0016
     27 C          62.3481   90.4481   10.5806 C.ar    1  UNL1        0.0029
     28 C          61.6210   89.6368   11.6116 C.ar    1  UNL1        0.0347
     29 C          62.1226   89.5961   13.0246 C.ar    1  UNL1        0.0029
     30 C          63.3513   90.3669   13.4066 C.ar    1  UNL1        0.0016
     31 C          68.4301   92.7535   14.9180 C.3     1  UNL1        0.0515
     32 C          67.3075   92.6731   13.9264 C.ar    1  UNL1        0.0535
     33 C          66.2065   91.6545   13.9217 C.ar    1  UNL1        0.0349
     34 C          65.3073   91.9492   12.7578 C.ar    1  UNL1        0.1018
     35 N          65.8526   93.1499   12.0431 N.ar    1  UNL1       -0.1730
     36 N          67.0888   93.5974   12.7653 N.ar    1  UNL1       -0.2798
     37 H          67.6569   94.3632   12.5203 H       1  UNL1        0.1886
@<TRIPOS>BOND
     1    31    32    1
     2    32    33   ar
     3    33    34   ar
     4    34    25    1
     5    25    26   ar
     6    26    27   ar
     7    27    28   ar
     8    28    23    1
     9    23    24    2
    10     1    23    1
    11     1     2    1
    12     2     3    1
    13     3     4    1
    14     4     5    1
    15     5     6    1
    16     6     7    1
    17     7     8    2
    18     7     9   am
    19     9    11    1
    20    11    12   ar
    21    12    13   ar
    22    13    14   ar
    23    14    15    1
    24    14    16   ar
    25    16    17    1
    26    17    18    1
    27    17    19    2
    28    17    20    2
    29    28    29   ar
    30    29    30   ar
    31    34    35   ar
    32    35    36   ar
    33    36    32   ar
    34    30    25   ar
    35     6     1    1
    36    16    11   ar
    37     9    10    1
    38    18    21    1
    39    18    22    1
    40    36    37    1
@<TRIPOS>MOLECULE
*****
 37 40 0 0 0
SMALL
GASTEIGER

@<TRIPOS>ATOM
      1 C          63.2263   85.1321   12.1162 C.3     1  UNL1        0.0705
      2 C          63.9155   84.4002   13.2295 C.3     1  UNL1        0.0082
      3 C          64.6347   83.1140   12.9491 C.3     1  UNL1        0.0005
      4 C          64.6646   82.5597   11.5557 C.3     1  UNL1        0.0005
      5 C          63.9754   83.2916   10.4424 C.3     1  UNL1        0.0095
      6 C          63.2562   84.5777   10.7227 C.3     1  UNL1        0.0840
      7 C          62.5670   85.3096    9.6094 C.2     1  UNL1        0.2262
      8 O          63.2871   85.5596    8.3174 O.2     1  UNL1       -0.2748
      9 N          61.1579   85.7916    9.7881 N.am    1  UNL1       -0.2804
     10 H          60.6853   85.6275   10.6360 H       1  UNL1        0.1550
     11 C          60.4687   86.5234    8.6748 C.ar    1  UNL1        0.1083
     12 C          60.0399   85.9332    7.3642 C.ar    1  UNL1        0.1377
     13 N          59.3934   87.0190    6.5561 N.ar    1  UNL1       -0.1651
     14 N          59.4227   88.2804    7.3673 N.ar    1  UNL1       -0.2302
     15 C          58.8823   89.6140    6.9435 C.3     1  UNL1        0.1553
     16 C          60.0872   87.9741    8.6767 C.ar    1  UNL1        0.2147
     17 S          60.3280   88.9476    9.7922 S.O2    1  UNL1        0.0748
     18 N          60.5689   89.9212   10.9077 N.3     1  UNL1       -0.2021
     19 O          61.4821   89.5321    9.0330 O.2     1  UNL1       -0.1517
     20 O          59.1740   88.3632   10.5514 O.2     1  UNL1       -0.1517
     21 H          61.3634   90.5166   10.6737 H       1  UNL1        0.1443
     22 H          60.7684   89.4104   11.7677 H       1  UNL1        0.1443
     23 C          62.5071   86.4182   12.3964 C.2     1  UNL1        0.1731
     24 O          61.0540   86.5557   12.0507 O.2     1  UNL1       -0.2913
     25 C          64.7089   89.8644   14.2742 C.ar    1  UNL1        0.0194
     26 C          63.9729   90.0595   12.9819 C.ar    1  UNL1        0.0016
     27 C          63.2390   88.9108   12.3560 C.ar    1  UNL1        0.0029
     28 C          63.2411   87.5670   13.0224 C.ar    1  UNL1        0.0347
     29 C          63.9771   87.3718   14.3147 C.ar    1  UNL1        0.0029
     30 C          64.7110   88.5206   14.9406 C.ar    1  UNL1        0.0016
     31 C          68.5078   93.3093   15.5320 C.3     1  UNL1        0.0515
     32 C          67.1890   92.5966   15.4783 C.ar    1  UNL1        0.0535
     33 C          66.8721   91.3903   14.6450 C.ar    1  UNL1        0.0349
     34 C          65.4429   91.0131   14.9002 C.ar    1  UNL1        0.1018
     35 N          64.8765   91.9864   15.8911 N.ar    1  UNL1       -0.1730
     36 N          65.9556   92.9650   16.2484 N.ar    1  UNL1       -0.2798
     37 H          65.8695   93.7171   16.8779 H       1  UNL1        0.1886
@<TRIPOS>BOND
     1    31    32    1
     2    32    33   ar
     3    33    34   ar
     4    34    25    1
     5    25    26   ar
     6    26    27   ar
     7    27    28   ar
     8    28    23    1
     9    23    24    2
    10     1    23    1
    11     1     2    1
    12     2     3    1
    13     3     4    1
    14     4     5    1
    15     5     6    1
    16     6     7    1
    17     7     8    2
    18     7     9   am
    19     9    11    1
    20    11    12   ar
    21    12    13   ar
    22    13    14   ar
    23    14    15    1
    24    14    16   ar
    25    16    17    1
    26    17    18    1
    27    17    19    2
    28    17    20    2
    29    28    29   ar
    30    29    30   ar
    31    34    35   ar
    32    35    36   ar
    33    36    32   ar
    34    30    25   ar
    35     6     1    1
    36    16    11   ar
    37     9    10    1
    38    18    21    1
    39    18    22    1
    40    36    37    1
@<TRIPOS>MOLECULE
*****
 37 40 0 0 0
SMALL
GASTEIGER

@<TRIPOS>ATOM
      1 C          63.2584   90.3804   13.0393 C.3     1  UNL1        0.0705
      2 C          63.6281   91.6822   12.3924 C.3     1  UNL1        0.0082
      3 C          64.9692   92.2986   12.6602 C.3     1  UNL1        0.0005
      4 C          65.9405   91.6131   13.5749 C.3     1  UNL1        0.0005
      5 C          65.5708   90.3113   14.2218 C.3     1  UNL1        0.0095
      6 C          64.2298   89.6949   13.9540 C.3     1  UNL1        0.0840
      7 C          63.8601   88.3930   14.6009 C.2     1  UNL1        0.2262
      8 O          63.2536   88.3829   15.9729 O.2     1  UNL1       -0.2748
      9 N          64.0968   87.1014   13.8760 N.am    1  UNL1       -0.2804
     10 H          64.4949   87.1081   12.9756 H       1  UNL1        0.1550
     11 C          63.7271   85.7996   14.5229 C.ar    1  UNL1        0.1083
     12 C          63.7596   85.5051   15.9934 C.ar    1  UNL1        0.1377
     13 N          63.3126   84.0872   16.1922 N.ar    1  UNL1       -0.1651
     14 N          63.0038   83.5052   14.8446 N.ar    1  UNL1       -0.2302
     15 C          62.5232   82.1099   14.5759 C.3     1  UNL1        0.1553
     16 C          63.2600   84.5635   13.8130 C.ar    1  UNL1        0.2147
     17 S          63.0806   84.4123   12.3314 S.O2    1  UNL1        0.0748
     18 N          62.9013   84.2610   10.8498 N.3     1  UNL1       -0.2021
     19 O          64.2416   83.4635   12.2877 O.2     1  UNL1       -0.1517
     20 O          61.9197   85.3611   12.3751 O.2     1  UNL1       -0.1517
     21 H          63.6049   83.6185   10.4860 H       1  UNL1        0.1443
     22 H          63.0063   85.1704   10.4000 H       1  UNL1        0.1443
     23 C          61.9174   89.7640   12.7715 C.2     1  UNL1        0.1731
     24 O          60.7609   90.0606   13.6795 O.2     1  UNL1       -0.2913
     25 C          61.3639   87.0249    9.2443 C.ar    1  UNL1        0.0194
     26 C          60.1800   87.4327   10.0703 C.ar    1  UNL1        0.0016
     27 C          60.3646   88.3457   11.2460 C.ar    1  UNL1        0.0029
     28 C          61.7329   88.8509   11.5957 C.ar    1  UNL1        0.0347
     29 C          62.9168   88.4432   10.7698 C.ar    1  UNL1        0.0029
     30 C          62.7322   87.5302    9.5941 C.ar    1  UNL1        0.0016
     31 C          62.3633   83.7769    5.2030 C.3     1  UNL1        0.0515
     32 C          61.6388   84.6189    6.2110 C.ar    1  UNL1        0.0535
     33 C          62.2736   85.4329    7.2993 C.ar    1  UNL1        0.0349
     34 C          61.1794   86.1119    8.0685 C.ar    1  UNL1        0.1018
     35 N          59.8684   85.7175    7.4556 N.ar    1  UNL1       -0.1730
     36 N          60.1523   84.7949    6.3076 N.ar    1  UNL1       -0.2798
     37 H          59.4808   84.3779    5.7206 H       1  UNL1        0.1886
@<TRIPOS>BOND
     1    31    32    1
     2    32    33   ar
     3    33    34   ar
     4    34    25    1
     5    25    26   ar
     6    26    27   ar
     7    27    28   ar
     8    28    23    1
     9    23    24    2
    10     1    23    1
    11     1     2    1
    12     2     3    1
    13     3     4    1
    14     4     5    1
    15     5     6    1
    16     6     7    1
    17     7     8    2
    18     7     9   am
    19     9    11    1
    20    11    12   ar
    21    12    13   ar
    22    13    14   ar
    23    14    15    1
    24    14    16   ar
    25    16    17    1
    26    17    18    1
    27    17    19    2
    28    17    20    2
    29    28    29   ar
    30    29    30   ar
    31    34    35   ar
    32    35    36   ar
    33    36    32   ar
    34    30    25   ar
    35     6     1    1
    36    16    11   ar
    37     9    10    1
    38    18    21    1
    39    18    22    1
    40    36    37    1
@<TRIPOS>MOLECULE
*****
 37 40 0 0 0
SMALL
GASTEIGER

@<TRIPOS>ATOM
      1 C          62.1185   88.0585   11.3465 C.3     1  UNL1        0.0705
      2 C          61.3820   87.4282   10.2018 C.3     1  UNL1        0.0082
      3 C          60.5185   88.2709    9.3106 C.3     1  UNL1        0.0005
      4 C          60.3915   89.7439    9.5641 C.3     1  UNL1        0.0005
      5 C          61.1280   90.3741   10.7088 C.3     1  UNL1        0.0095
      6 C          61.9915   89.5315   11.5999 C.3     1  UNL1        0.0840
      7 C          62.7280   90.1618   12.7446 C.2     1  UNL1        0.2262
      8 O          62.1598   90.0923   14.1312 O.2     1  UNL1       -0.2748
      9 N          64.0325   90.8615   12.5028 N.am    1  UNL1       -0.2804
     10 H          64.4054   90.9071   11.5928 H       1  UNL1        0.1550
     11 C          64.7690   91.4918   13.6475 C.ar    1  UNL1        0.1083
     12 C          64.4045   91.3811   15.0983 C.ar    1  UNL1        0.1377
     13 N          65.4095   92.1643   15.8899 N.ar    1  UNL1       -0.1651
     14 N          66.3952   92.7591   14.9282 N.ar    1  UNL1       -0.2302
     15 C          67.5704   93.6186   15.2890 C.3     1  UNL1        0.1553
     16 C          65.9993   92.3434   13.5424 C.ar    1  UNL1        0.2147
     17 S          66.7091   92.7144   12.2741 S.O2    1  UNL1        0.0748
     18 N          67.4190   93.0852   11.0058 N.3     1  UNL1       -0.2021
     19 O          67.8957   91.9019   12.7006 O.2     1  UNL1       -0.1517
     20 O          65.5226   93.5268   11.8476 O.2     1  UNL1       -0.1517
     21 H          68.3407   92.6484   10.9918 H       1  UNL1        0.1443
     22 H          67.5224   94.0989   10.9580 H       1  UNL1        0.1443
     23 C          62.9820   87.2159   12.2376 C.2     1  UNL1        0.1731
     24 O          63.9036   87.8690   13.2246 O.2     1  UNL1       -0.2913
     25 C          62.8079   82.7284   11.9503 C.ar    1  UNL1        0.0194
     26 C          62.8893   83.5572   10.7028 C.ar    1  UNL1        0.0016
     27 C          62.9473   85.0530   10.7986 C.ar    1  UNL1        0.0029
     28 C          62.9240   85.7200   12.1419 C.ar    1  UNL1        0.0347
     29 C          62.8426   84.8912   13.3895 C.ar    1  UNL1        0.0029
     30 C          62.7846   83.3954   13.2937 C.ar    1  UNL1        0.0016
     31 C          62.9227   77.8110   10.0301 C.3     1  UNL1        0.0515
     32 C          62.8026   78.9723   10.9719 C.ar    1  UNL1        0.0535
     33 C          62.9456   80.4206   10.6086 C.ar    1  UNL1        0.0349
     34 C          62.7499   81.2326   11.8546 C.ar    1  UNL1        0.1018
     35 N          62.4859   80.2861   12.9879 N.ar    1  UNL1       -0.1730
     36 N          62.5185   78.8892   12.4424 N.ar    1  UNL1       -0.2798
     37 H          62.3781   78.0629   12.9589 H       1  UNL1        0.1886
@<TRIPOS>BOND
     1    31    32    1
     2    32    33   ar
     3    33    34   ar
     4    34    25    1
     5    25    26   ar
     6    26    27   ar
     7    27    28   ar
     8    28    23    1
     9    23    24    2
    10     1    23    1
    11     1     2    1
    12     2     3    1
    13     3     4    1
    14     4     5    1
    15     5     6    1
    16     6     7    1
    17     7     8    2
    18     7     9   am
    19     9    11    1
    20    11    12   ar
    21    12    13   ar
    22    13    14   ar
    23    14    15    1
    24    14    16   ar
    25    16    17    1
    26    17    18    1
    27    17    19    2
    28    17    20    2
    29    28    29   ar
    30    29    30   ar
    31    34    35   ar
    32    35    36   ar
    33    36    32   ar
    34    30    25   ar
    35     6     1    1
    36    16    11   ar
    37     9    10    1
    38    18    21    1
    39    18    22    1
    40    36    37    1
@<TRIPOS>MOLECULE
*****
 37 40 0 0 0
SMALL
GASTEIGER

@<TRIPOS>ATOM
      1 C          62.1563   86.5458    9.7675 C.3     1  UNL1        0.0705
      2 C          62.2969   86.1504    8.3274 C.3     1  UNL1        0.0082
      3 C          62.9579   84.8529    7.9671 C.3     1  UNL1        0.0005
      4 C          63.4782   83.9510    9.0468 C.3     1  UNL1        0.0005
      5 C          63.3376   84.3464   10.4868 C.3     1  UNL1        0.0095
      6 C          62.6766   85.6438   10.8472 C.3     1  UNL1        0.0840
      7 C          62.5359   86.0392   12.2873 C.2     1  UNL1        0.2262
      8 O          61.1757   86.1131   12.9154 O.2     1  UNL1       -0.2748
      9 N          63.7554   86.3608   13.0993 N.am    1  UNL1       -0.2804
     10 H          64.6481   86.3123   12.6871 H       1  UNL1        0.1550
     11 C          63.6147   86.7562   14.5394 C.ar    1  UNL1        0.1083
     12 C          63.8394   88.1280   15.1031 C.ar    1  UNL1        0.1377
     13 N          63.5882   88.0689   16.5807 N.ar    1  UNL1       -0.1651
     14 N          63.2083   86.6606   16.9303 N.ar    1  UNL1       -0.2302
     15 C          62.8712   86.1526   18.3009 C.3     1  UNL1        0.1553
     16 C          63.2247   85.8493   15.6688 C.ar    1  UNL1        0.2147
     17 S          62.9068   84.3877   15.5563 S.O2    1  UNL1        0.0748
     18 N          62.5891   82.9260   15.4438 N.3     1  UNL1       -0.2021
     19 O          64.3654   84.0839   15.3819 O.2     1  UNL1       -0.1517
     20 O          61.4484   84.6914   15.7306 O.2     1  UNL1       -0.1517
     21 H          63.4521   82.4000   15.3065 H       1  UNL1        0.1443
     22 H          61.9678   82.7733   14.6494 H       1  UNL1        0.1443
     23 C          61.4953   87.8432   10.1279 C.2     1  UNL1        0.1731
     24 O          59.9990   87.9486   10.1256 O.2     1  UNL1       -0.2913
     25 C          64.0012   91.4189   11.2163 C.ar    1  UNL1        0.0194
     26 C          63.7688   90.3315   12.2230 C.ar    1  UNL1        0.0016
     27 C          62.9335   89.1396   11.8602 C.ar    1  UNL1        0.0029
     28 C          62.3306   89.0351   10.4907 C.ar    1  UNL1        0.0347
     29 C          62.5630   90.1225    9.4840 C.ar    1  UNL1        0.0029
     30 C          63.3983   91.3144    9.8468 C.ar    1  UNL1        0.0016
     31 C          66.6940   95.9495   10.8945 C.3     1  UNL1        0.0515
     32 C          66.0743   94.6933   11.4311 C.ar    1  UNL1        0.0535
     33 C          65.2504   93.7132   10.6497 C.ar    1  UNL1        0.0349
     34 C          64.8365   92.6108   11.5790 C.ar    1  UNL1        0.1018
     35 N          65.4046   92.9097   12.9347 N.ar    1  UNL1       -0.1730
     36 N          66.1696   94.1967   12.8433 N.ar    1  UNL1       -0.2798
     37 H          66.6499   94.6381   13.5807 H       1  UNL1        0.1886
@<TRIPOS>BOND
     1    31    32    1
     2    32    33   ar
     3    33    34   ar
     4    34    25    1
     5    25    26   ar
     6    26    27   ar
     7    27    28   ar
     8    28    23    1
     9    23    24    2
    10     1    23    1
    11     1     2    1
    12     2     3    1
    13     3     4    1
    14     4     5    1
    15     5     6    1
    16     6     7    1
    17     7     8    2
    18     7     9   am
    19     9    11    1
    20    11    12   ar
    21    12    13   ar
    22    13    14   ar
    23    14    15    1
    24    14    16   ar
    25    16    17    1
    26    17    18    1
    27    17    19    2
    28    17    20    2
    29    28    29   ar
    30    29    30   ar
    31    34    35   ar
    32    35    36   ar
    33    36    32   ar
    34    30    25   ar
    35     6     1    1
    36    16    11   ar
    37     9    10    1
    38    18    21    1
    39    18    22    1
    40    36    37    1
@<TRIPOS>MOLECULE
*****
 37 40 0 0 0
SMALL
GASTEIGER

@<TRIPOS>ATOM
      1 C          61.6175   93.6415    1.2202 C.3     1  UNL1        0.0705
      2 C          61.1447   92.7550    2.3340 C.3     1  UNL1        0.0082
      3 C          62.1201   91.8742    3.0571 C.3     1  UNL1        0.0005
      4 C          63.5682   91.8799    2.6664 C.3     1  UNL1        0.0005
      5 C          64.0411   92.7664    1.5526 C.3     1  UNL1        0.0095
      6 C          63.0658   93.6472    0.8295 C.3     1  UNL1        0.0840
      7 C          63.5387   94.5336   -0.2843 C.2     1  UNL1        0.2262
      8 O          63.5488   96.0229   -0.1048 O.2     1  UNL1       -0.2748
      9 N          64.0013   93.9310   -1.5776 N.am    1  UNL1       -0.2804
     10 H          63.9947   92.9535   -1.6954 H       1  UNL1        0.1550
     11 C          64.4742   94.8174   -2.6914 C.ar    1  UNL1        0.1083
     12 C          64.9794   96.2223   -2.5462 C.ar    1  UNL1        0.1377
     13 N          65.3423   96.7278   -3.9110 N.ar    1  UNL1       -0.1651
     14 N          65.0614   95.6353   -4.8998 N.ar    1  UNL1       -0.2302
     15 C          65.2789   95.7103   -6.3820 C.3     1  UNL1        0.1553
     16 C          64.5249   94.4547   -4.1460 C.ar    1  UNL1        0.2147
     17 S          64.1116   93.1418   -4.7422 S.O2    1  UNL1        0.0748
     18 N          63.6984   91.8288   -5.3384 N.3     1  UNL1       -0.2021
     19 O          65.5287   92.6572   -4.6574 O.2     1  UNL1       -0.1517
     20 O          62.6947   93.6262   -4.8269 O.2     1  UNL1       -0.1517
     21 H          64.5133   91.2206   -5.4191 H       1  UNL1        0.1443
     22 H          63.2986   91.9862   -6.2635 H       1  UNL1        0.1443
     23 C          60.6422   94.5223    0.4971 C.2     1  UNL1        0.1731
     24 O          60.5305   95.9735    0.8596 O.2     1  UNL1       -0.2913
     25 C          58.0512   92.8110   -2.7599 C.ar    1  UNL1        0.0194
     26 C          59.4498   93.2557   -3.0700 C.ar    1  UNL1        0.0016
     27 C          60.3134   93.8262   -1.9844 C.ar    1  UNL1        0.0029
     28 C          59.7785   93.9518   -0.5886 C.ar    1  UNL1        0.0347
     29 C          58.3799   93.5070   -0.2785 C.ar    1  UNL1        0.0029
     30 C          57.5163   92.9366   -1.3642 C.ar    1  UNL1        0.0016
     31 C          55.5202   92.1739   -7.3501 C.3     1  UNL1        0.0515
     32 C          56.0242   91.9477   -5.9555 C.ar    1  UNL1        0.0535
     33 C          56.9480   92.8517   -5.1944 C.ar    1  UNL1        0.0349
     34 C          57.1875   92.2405   -3.8456 C.ar    1  UNL1        0.1018
     35 N          56.4117   90.9588   -3.7732 N.ar    1  UNL1       -0.1730
     36 N          55.6928   90.7778   -5.0771 N.ar    1  UNL1       -0.2798
     37 H          55.1063   90.0235   -5.3147 H       1  UNL1        0.1886
@<TRIPOS>BOND
     1    31    32    1
     2    32    33   ar
     3    33    34   ar
     4    34    25    1
     5    25    26   ar
     6    26    27   ar
     7    27    28   ar
     8    28    23    1
     9    23    24    2
    10     1    23    1
    11     1     2    1
    12     2     3    1
    13     3     4    1
    14     4     5    1
    15     5     6    1
    16     6     7    1
    17     7     8    2
    18     7     9   am
    19     9    11    1
    20    11    12   ar
    21    12    13   ar
    22    13    14   ar
    23    14    15    1
    24    14    16   ar
    25    16    17    1
    26    17    18    1
    27    17    19    2
    28    17    20    2
    29    28    29   ar
    30    29    30   ar
    31    34    35   ar
    32    35    36   ar
    33    36    32   ar
    34    30    25   ar
    35     6     1    1
    36    16    11   ar
    37     9    10    1
    38    18    21    1
    39    18    22    1
    40    36    37    1
@<TRIPOS>MOLECULE
*****
 37 40 0 0 0
SMALL
GASTEIGER

@<TRIPOS>ATOM
      1 C          63.2727   82.1923   12.0933 C.3     1  UNL1        0.0705
      2 C          62.7693   80.7985   11.8608 C.3     1  UNL1        0.0082
      3 C          62.2101   80.0028   13.0028 C.3     1  UNL1        0.0005
      4 C          62.1543   80.6008   14.3773 C.3     1  UNL1        0.0005
      5 C          62.6577   81.9945   14.6098 C.3     1  UNL1        0.0095
      6 C          63.2169   82.7903   13.4679 C.3     1  UNL1        0.0840
      7 C          63.7203   84.1840   13.7004 C.2     1  UNL1        0.2262
      8 O          65.1931   84.4659   13.6605 O.2     1  UNL1       -0.2748
      9 N          62.7511   85.2958   13.9728 N.am    1  UNL1       -0.2804
     10 H          61.7845   85.1108   13.9990 H       1  UNL1        0.1550
     11 C          63.2545   86.6896   14.2053 C.ar    1  UNL1        0.1083
     12 C          63.7946   87.6181   13.1584 C.ar    1  UNL1        0.1377
     13 N          64.1801   88.9019   13.8316 N.ar    1  UNL1       -0.1651
     14 N          63.8782   88.7668   15.2947 N.ar    1  UNL1       -0.2302
     15 C          64.1080   89.8150   16.3428 C.3     1  UNL1        0.1553
     16 C          63.3061   87.3996   15.5257 C.ar    1  UNL1        0.2147
     17 S          62.8634   86.8405   16.8453 S.O2    1  UNL1        0.0748
     18 N          62.4206   86.2814   18.1650 N.3     1  UNL1       -0.2021
     19 O          61.8195   87.9126   16.9493 O.2     1  UNL1       -0.1517
     20 O          63.9072   85.7684   16.7413 O.2     1  UNL1       -0.1517
     21 H          61.6510   86.8421   18.5307 H       1  UNL1        0.1443
     22 H          63.2001   86.3039   18.8225 H       1  UNL1        0.1443
     23 C          63.8319   82.9880   10.9514 C.2     1  UNL1        0.1731
     24 O          65.1445   82.5993   10.3381 O.2     1  UNL1       -0.2913
     25 C          61.5720   86.5414    9.3652 C.ar    1  UNL1        0.0194
     26 C          62.6075   85.8698    8.5129 C.ar    1  UNL1        0.0016
     27 C          63.3608   84.6853    9.0416 C.ar    1  UNL1        0.0029
     28 C          63.0786   84.1725   10.4227 C.ar    1  UNL1        0.0347
     29 C          62.0431   84.8442   11.2750 C.ar    1  UNL1        0.0029
     30 C          61.2898   86.0286   10.7463 C.ar    1  UNL1        0.0016
     31 C          58.6814   89.6695    6.2442 C.3     1  UNL1        0.0515
     32 C          59.4900   89.1637    7.4019 C.ar    1  UNL1        0.0535
     33 C          60.1018   87.7994    7.5210 C.ar    1  UNL1        0.0349
     34 C          60.8187   87.7260    8.8366 C.ar    1  UNL1        0.1018
     35 N          60.6500   89.0450    9.5306 N.ar    1  UNL1       -0.1730
     36 N          59.8288   89.9336    8.6440 N.ar    1  UNL1       -0.2798
     37 H          59.5595   90.8595    8.8424 H       1  UNL1        0.1886
@<TRIPOS>BOND
     1    31    32    1
     2    32    33   ar
     3    33    34   ar
     4    34    25    1
     5    25    26   ar
     6    26    27   ar
     7    27    28   ar
     8    28    23    1
     9    23    24    2
    10     1    23    1
    11     1     2    1
    12     2     3    1
    13     3     4    1
    14     4     5    1
    15     5     6    1
    16     6     7    1
    17     7     8    2
    18     7     9   am
    19     9    11    1
    20    11    12   ar
    21    12    13   ar
    22    13    14   ar
    23    14    15    1
    24    14    16   ar
    25    16    17    1
    26    17    18    1
    27    17    19    2
    28    17    20    2
    29    28    29   ar
    30    29    30   ar
    31    34    35   ar
    32    35    36   ar
    33    36    32   ar
    34    30    25   ar
    35     6     1    1
    36    16    11   ar
    37     9    10    1
    38    18    21    1
    39    18    22    1
    40    36    37    1
