@<TRIPOS>MOLECULE
*****
 25 27 0 0 0
SMALL
GASTEIGER

@<TRIPOS>ATOM
      1 N          61.2877   89.6996   12.6021 N.pl3   1  UNL1       -0.2150
      2 H          60.4574   89.9601   13.0624 H       1  UNL1        0.1737
      3 C          62.6037   90.2589   13.0553 C.ar    1  UNL1        0.0648
      4 C          63.0876   90.0006   14.4514 C.ar    1  UNL1        0.0160
      5 C          64.4035   90.5600   14.9046 C.ar    1  UNL1        0.0044
      6 C          65.2356   91.3776   13.9616 C.ar    1  UNL1        0.0359
      7 C          64.7517   91.6359   12.5655 C.ar    1  UNL1        0.0044
      8 C          63.4358   91.0766   12.1124 C.ar    1  UNL1        0.0160
      9 C          66.5516   91.9370   14.4148 C.ar    1  UNL1        0.1623
     10 N          66.6275   92.7503   15.6728 N.ar    1  UNL1       -0.2250
     11 C          67.9435   93.3097   16.1261 C.ar    1  UNL1        0.1022
     12 C          69.1836   93.0556   15.3212 C.ar    1  UNL1        0.0414
     13 C          69.1076   92.2422   14.0632 C.ar    1  UNL1        0.1022
     14 N          67.7916   91.6829   13.6100 N.ar    1  UNL1       -0.2250
     15 O          60.1677   89.5763   10.8048 O.2     1  UNL1       -0.1499
     16 S          61.2369   88.7434   11.4475 S.O2    1  UNL1        0.0736
     17 O          62.3060   87.9105   12.0903 O.2     1  UNL1       -0.1499
     18 C          61.1860   87.7871   10.2929 C.ar    1  UNL1        0.1268
     19 C          62.3330   86.8538   10.0411 C.ar    1  UNL1        0.0316
     20 C          62.2823   85.8976    8.8865 C.ar    1  UNL1        0.0599
     21 CL         63.4293   84.9643    8.6347 Cl      1  UNL1       -0.0822
     22 C          61.0845   85.8746    7.9839 C.ar    1  UNL1        0.0229
     23 C          59.9375   86.8079    8.2358 C.ar    1  UNL1        0.0599
     24 CL         58.7397   86.7848    7.3331 Cl      1  UNL1       -0.0822
     25 C          59.9883   87.7641    9.3903 C.ar    1  UNL1        0.0316
@<TRIPOS>BOND
     1    15    16    2
     2    16    17    2
     3    16     1    1
     4     1     3    1
     5     3     4   ar
     6     4     5   ar
     7     5     6   ar
     8     6     9    1
     9     9    10   ar
    10    10    11   ar
    11    11    12   ar
    12    12    13   ar
    13    13    14   ar
    14     6     7   ar
    15     7     8   ar
    16    16    18    1
    17    18    19   ar
    18    19    20   ar
    19    20    21    1
    20    20    22   ar
    21    22    23   ar
    22    23    24    1
    23    23    25   ar
    24     8     3   ar
    25    25    18   ar
    26    14     9   ar
    27     1     2    1
@<TRIPOS>MOLECULE
*****
 25 27 0 0 0
SMALL
GASTEIGER

@<TRIPOS>ATOM
      1 N          61.2981   89.7279   12.6200 N.pl3   1  UNL1       -0.2150
      2 H          60.4700   89.9866   13.0854 H       1  UNL1        0.1737
      3 C          62.6165   90.2839   13.0704 C.ar    1  UNL1        0.0648
      4 C          63.4522   91.0930   12.1233 C.ar    1  UNL1        0.0160
      5 C          64.7705   91.6489   12.5737 C.ar    1  UNL1        0.0044
      6 C          65.2532   91.3958   13.9712 C.ar    1  UNL1        0.0359
      7 C          64.4175   90.5867   14.9183 C.ar    1  UNL1        0.0044
      8 C          63.0992   90.0308   14.4679 C.ar    1  UNL1        0.0160
      9 C          66.5716   91.9518   14.4215 C.ar    1  UNL1        0.1623
     10 N          67.8040   91.7195   13.5986 N.ar    1  UNL1       -0.2250
     11 C          69.1224   92.2755   14.0490 C.ar    1  UNL1        0.1022
     12 C          69.2083   93.0637   15.3223 C.ar    1  UNL1        0.0414
     13 C          67.9759   93.2960   16.1452 C.ar    1  UNL1        0.1022
     14 N          66.6575   92.7400   15.6948 N.ar    1  UNL1       -0.2250
     15 O          60.1493   89.5987   10.8414 O.2     1  UNL1       -0.1499
     16 S          61.2415   88.7779   11.4607 S.O2    1  UNL1        0.0736
     17 O          62.3336   87.9571   12.0799 O.2     1  UNL1       -0.1499
     18 C          61.1849   87.8278   10.3013 C.ar    1  UNL1        0.1268
     19 C          59.9944   87.8282    9.3887 C.ar    1  UNL1        0.0316
     20 C          59.9378   86.8782    8.2293 C.ar    1  UNL1        0.0599
     21 CL         58.7473   86.8787    7.3167 Cl      1  UNL1       -0.0822
     22 C          61.0716   85.9277    7.9826 C.ar    1  UNL1        0.0229
     23 C          62.2620   85.9272    8.8952 C.ar    1  UNL1        0.0599
     24 CL         63.3958   84.9766    8.6483 Cl      1  UNL1       -0.0822
     25 C          62.3187   86.8772   10.0545 C.ar    1  UNL1        0.0316
@<TRIPOS>BOND
     1    15    16    2
     2    16    17    2
     3    16     1    1
     4     1     3    1
     5     3     4   ar
     6     4     5   ar
     7     5     6   ar
     8     6     9    1
     9     9    10   ar
    10    10    11   ar
    11    11    12   ar
    12    12    13   ar
    13    13    14   ar
    14     6     7   ar
    15     7     8   ar
    16    16    18    1
    17    18    19   ar
    18    19    20   ar
    19    20    21    1
    20    20    22   ar
    21    22    23   ar
    22    23    24    1
    23    23    25   ar
    24     8     3   ar
    25    25    18   ar
    26    14     9   ar
    27     1     2    1
@<TRIPOS>MOLECULE
*****
 25 27 0 0 0
SMALL
GASTEIGER

@<TRIPOS>ATOM
      1 N          63.9635   91.8890   13.0286 N.pl3   1  UNL1       -0.2150
      2 H          63.3476   92.4617   13.5404 H       1  UNL1        0.1737
      3 C          63.8991   90.3977   13.1772 C.ar    1  UNL1        0.0648
      4 C          64.5376   89.7336   14.3609 C.ar    1  UNL1        0.0160
      5 C          64.4732   88.2424   14.5094 C.ar    1  UNL1        0.0044
      6 C          63.7703   87.4153   13.4741 C.ar    1  UNL1        0.0359
      7 C          63.1318   88.0793   12.2904 C.ar    1  UNL1        0.0044
      8 C          63.1962   89.5705   12.1419 C.ar    1  UNL1        0.0160
      9 C          63.7059   85.9240   13.6227 C.ar    1  UNL1        0.1623
     10 N          64.5349   85.2379   14.6676 N.ar    1  UNL1       -0.2250
     11 C          64.4706   83.7466   14.8161 C.ar    1  UNL1        0.1022
     12 C          63.5771   82.9415   13.9197 C.ar    1  UNL1        0.0414
     13 C          62.7481   83.6277   12.8747 C.ar    1  UNL1        0.1022
     14 N          62.8125   85.1189   12.7262 N.ar    1  UNL1       -0.2250
     15 O          64.1942   91.9914   10.9224 O.2     1  UNL1       -0.1499
     16 S          64.9662   92.5076   12.1003 S.O2    1  UNL1        0.0736
     17 O          65.7382   93.0238   13.2782 O.2     1  UNL1       -0.1499
     18 C          65.9690   93.1263   11.1720 C.ar    1  UNL1        0.1268
     19 C          65.9973   94.6140   10.9822 C.ar    1  UNL1        0.0316
     20 C          67.0000   95.2327   10.0539 C.ar    1  UNL1        0.0599
     21 CL         67.0283   96.7204    9.8641 Cl      1  UNL1       -0.0822
     22 C          67.9744   94.3638    9.3155 C.ar    1  UNL1        0.0229
     23 C          67.9461   92.8761    9.5053 C.ar    1  UNL1        0.0599
     24 CL         68.9206   92.0071    8.7668 Cl      1  UNL1       -0.0822
     25 C          66.9434   92.2574   10.4335 C.ar    1  UNL1        0.0316
@<TRIPOS>BOND
     1    15    16    2
     2    16    17    2
     3    16     1    1
     4     1     3    1
     5     3     4   ar
     6     4     5   ar
     7     5     6   ar
     8     6     9    1
     9     9    10   ar
    10    10    11   ar
    11    11    12   ar
    12    12    13   ar
    13    13    14   ar
    14     6     7   ar
    15     7     8   ar
    16    16    18    1
    17    18    19   ar
    18    19    20   ar
    19    20    21    1
    20    20    22   ar
    21    22    23   ar
    22    23    24    1
    23    23    25   ar
    24     8     3   ar
    25    25    18   ar
    26    14     9   ar
    27     1     2    1
@<TRIPOS>MOLECULE
*****
 25 27 0 0 0
SMALL
GASTEIGER

@<TRIPOS>ATOM
      1 N          63.9674   91.7213   13.2379 N.pl3   1  UNL1       -0.2150
      2 H          63.3719   92.2746   13.7933 H       1  UNL1        0.1737
      3 C          63.9066   90.2255   13.3334 C.ar    1  UNL1        0.0648
      4 C          64.5333   89.5224   14.5007 C.ar    1  UNL1        0.0160
      5 C          64.4725   88.0267   14.5962 C.ar    1  UNL1        0.0044
      6 C          63.7850   87.2341   13.5242 C.ar    1  UNL1        0.0359
      7 C          63.1583   87.9372   12.3568 C.ar    1  UNL1        0.0044
      8 C          63.2191   89.4329   12.2614 C.ar    1  UNL1        0.0160
      9 C          63.7242   85.7383   13.6197 C.ar    1  UNL1        0.1623
     10 N          63.1715   84.9358   12.4793 N.ar    1  UNL1       -0.2250
     11 C          63.1107   83.4401   12.5748 C.ar    1  UNL1        0.1022
     12 C          63.6027   82.7468   13.8106 C.ar    1  UNL1        0.0414
     13 C          64.1554   83.5494   14.9511 C.ar    1  UNL1        0.1022
     14 N          64.2162   85.0451   14.8555 N.ar    1  UNL1       -0.2250
     15 O          64.1893   91.7974   11.1296 O.2     1  UNL1       -0.1499
     16 S          64.9354   92.3739   12.2962 S.O2    1  UNL1        0.0736
     17 O          65.6815   92.9505   13.4628 O.2     1  UNL1       -0.1499
     18 C          65.9035   93.0267   11.3545 C.ar    1  UNL1        0.1268
     19 C          66.8500   92.1858   10.5500 C.ar    1  UNL1        0.0316
     20 C          67.8181   92.8385    9.6083 C.ar    1  UNL1        0.0599
     21 CL         68.7645   91.9977    8.8038 Cl      1  UNL1       -0.0822
     22 C          67.8397   94.3320    9.4712 C.ar    1  UNL1        0.0229
     23 C          66.8933   95.1729   10.2757 C.ar    1  UNL1        0.0599
     24 CL         66.9150   96.6665   10.1385 Cl      1  UNL1       -0.0822
     25 C          65.9252   94.5202   11.2173 C.ar    1  UNL1        0.0316
@<TRIPOS>BOND
     1    15    16    2
     2    16    17    2
     3    16     1    1
     4     1     3    1
     5     3     4   ar
     6     4     5   ar
     7     5     6   ar
     8     6     9    1
     9     9    10   ar
    10    10    11   ar
    11    11    12   ar
    12    12    13   ar
    13    13    14   ar
    14     6     7   ar
    15     7     8   ar
    16    16    18    1
    17    18    19   ar
    18    19    20   ar
    19    20    21    1
    20    20    22   ar
    21    22    23   ar
    22    23    24    1
    23    23    25   ar
    24     8     3   ar
    25    25    18   ar
    26    14     9   ar
    27     1     2    1
@<TRIPOS>MOLECULE
*****
 25 27 0 0 0
SMALL
GASTEIGER

@<TRIPOS>ATOM
      1 N          62.2729   89.3358   12.4202 N.pl3   1  UNL1       -0.2150
      2 H          61.5866   89.5065   13.1050 H       1  UNL1        0.1737
      3 C          63.1669   90.4493   11.9605 C.ar    1  UNL1        0.0648
      4 C          63.0720   90.9540   10.5512 C.ar    1  UNL1        0.0160
      5 C          63.9660   92.0674   10.0916 C.ar    1  UNL1        0.0044
      6 C          64.9547   92.6760   11.0413 C.ar    1  UNL1        0.0359
      7 C          65.0496   92.1712   12.4506 C.ar    1  UNL1        0.0044
      8 C          64.1557   91.0579   12.9102 C.ar    1  UNL1        0.0160
      9 C          65.8487   93.7894   10.5816 C.ar    1  UNL1        0.1623
     10 N          66.9833   93.5016    9.6436 N.ar    1  UNL1       -0.2250
     11 C          67.8772   94.6151    9.1839 C.ar    1  UNL1        0.1022
     12 C          67.6365   96.0162    9.6623 C.ar    1  UNL1        0.0414
     13 C          66.5019   96.3039   10.6004 C.ar    1  UNL1        0.1022
     14 N          65.6080   95.1905   11.0600 N.ar    1  UNL1       -0.2250
     15 O          63.5252   87.6692   12.8125 O.2     1  UNL1       -0.1499
     16 S          62.4247   87.9625   11.8363 S.O2    1  UNL1        0.0736
     17 O          61.3243   88.2558   10.8602 O.2     1  UNL1       -0.1499
     18 C          62.5765   86.5891   11.2525 C.ar    1  UNL1        0.1268
     19 C          62.6249   86.4080    9.7642 C.ar    1  UNL1        0.0316
     20 C          62.7766   85.0347    9.1804 C.ar    1  UNL1        0.0599
     21 CL         62.8250   84.8536    7.6921 Cl      1  UNL1       -0.0822
     22 C          62.8800   83.8425   10.0847 C.ar    1  UNL1        0.0229
     23 C          62.8317   84.0236   11.5730 C.ar    1  UNL1        0.0599
     24 CL         62.9351   82.8313   12.4773 Cl      1  UNL1       -0.0822
     25 C          62.6799   85.3969   12.1568 C.ar    1  UNL1        0.0316
@<TRIPOS>BOND
     1    15    16    2
     2    16    17    2
     3    16     1    1
     4     1     3    1
     5     3     4   ar
     6     4     5   ar
     7     5     6   ar
     8     6     9    1
     9     9    10   ar
    10    10    11   ar
    11    11    12   ar
    12    12    13   ar
    13    13    14   ar
    14     6     7   ar
    15     7     8   ar
    16    16    18    1
    17    18    19   ar
    18    19    20   ar
    19    20    21    1
    20    20    22   ar
    21    22    23   ar
    22    23    24    1
    23    23    25   ar
    24     8     3   ar
    25    25    18   ar
    26    14     9   ar
    27     1     2    1
@<TRIPOS>MOLECULE
*****
 25 27 0 0 0
SMALL
GASTEIGER

@<TRIPOS>ATOM
      1 N          62.3148   89.7684   11.3769 N.pl3   1  UNL1       -0.2150
      2 H          61.5501   90.1290   10.8725 H       1  UNL1        0.1737
      3 C          62.4148   88.2941   11.6352 C.ar    1  UNL1        0.0648
      4 C          61.5554   87.3374   10.8631 C.ar    1  UNL1        0.0160
      5 C          61.6555   85.8632   11.1214 C.ar    1  UNL1        0.0044
      6 C          62.6149   85.3458   12.1518 C.ar    1  UNL1        0.0359
      7 C          63.4743   86.3025   12.9239 C.ar    1  UNL1        0.0044
      8 C          63.3742   87.7766   12.6656 C.ar    1  UNL1        0.0160
      9 C          62.7149   83.8715   12.4101 C.ar    1  UNL1        0.1623
     10 N          63.0675   82.9363   11.2916 N.ar    1  UNL1       -0.2250
     11 C          63.1675   81.4621   11.5499 C.ar    1  UNL1        0.1022
     12 C          62.9149   80.9231   12.9267 C.ar    1  UNL1        0.0414
     13 C          62.5623   81.8583   14.0453 C.ar    1  UNL1        0.1022
     14 N          62.4623   83.3325   13.7869 N.ar    1  UNL1       -0.2250
     15 O          63.8494   90.9276   10.4819 O.2     1  UNL1       -0.1499
     16 S          63.3799   90.6931   11.8871 S.O2    1  UNL1        0.0736
     17 O          62.9104   90.4586   13.2922 O.2     1  UNL1       -0.1499
     18 C          64.4450   91.6179   12.3973 C.ar    1  UNL1        0.1268
     19 C          64.9722   92.7126   11.5177 C.ar    1  UNL1        0.0316
     20 C          66.0373   93.6373   12.0278 C.ar    1  UNL1        0.0599
     21 CL         66.5645   94.7320   11.1482 Cl      1  UNL1       -0.0822
     22 C          66.5752   93.4675   13.4177 C.ar    1  UNL1        0.0229
     23 C          66.0480   92.3728   14.2974 C.ar    1  UNL1        0.0599
     24 CL         66.5860   92.2030   15.6873 Cl      1  UNL1       -0.0822
     25 C          64.9829   91.4480   13.7872 C.ar    1  UNL1        0.0316
@<TRIPOS>BOND
     1    15    16    2
     2    16    17    2
     3    16     1    1
     4     1     3    1
     5     3     4   ar
     6     4     5   ar
     7     5     6   ar
     8     6     9    1
     9     9    10   ar
    10    10    11   ar
    11    11    12   ar
    12    12    13   ar
    13    13    14   ar
    14     6     7   ar
    15     7     8   ar
    16    16    18    1
    17    18    19   ar
    18    19    20   ar
    19    20    21    1
    20    20    22   ar
    21    22    23   ar
    22    23    24    1
    23    23    25   ar
    24     8     3   ar
    25    25    18   ar
    26    14     9   ar
    27     1     2    1
@<TRIPOS>MOLECULE
*****
 25 27 0 0 0
SMALL
GASTEIGER

@<TRIPOS>ATOM
      1 N          62.3350   89.7941   11.3690 N.pl3   1  UNL1       -0.2150
      2 H          61.5722   90.1549   10.8620 H       1  UNL1        0.1737
      3 C          62.4329   88.3200   11.6292 C.ar    1  UNL1        0.0648
      4 C          63.3739   87.8042   12.6772 C.ar    1  UNL1        0.0160
      5 C          63.4717   86.3302   12.9373 C.ar    1  UNL1        0.0044
      6 C          62.6284   85.3720   12.1494 C.ar    1  UNL1        0.0359
      7 C          61.6873   85.8878   11.1015 C.ar    1  UNL1        0.0044
      8 C          61.5895   87.3618   10.8413 C.ar    1  UNL1        0.0160
      9 C          62.7262   83.8979   12.4096 C.ar    1  UNL1        0.1623
     10 N          62.5299   83.3668   13.7986 N.ar    1  UNL1       -0.2250
     11 C          62.6277   81.8927   14.0587 C.ar    1  UNL1        0.1022
     12 C          62.9218   80.9498   12.9298 C.ar    1  UNL1        0.0414
     13 C          63.1181   81.4810   11.5408 C.ar    1  UNL1        0.1022
     14 N          63.0203   82.9550   11.2807 N.ar    1  UNL1       -0.2250
     15 O          63.8475   90.9823   10.4743 O.2     1  UNL1       -0.1499
     16 S          63.3996   90.7183   11.8813 S.O2    1  UNL1        0.0736
     17 O          62.9516   90.4544   13.2883 O.2     1  UNL1       -0.1499
     18 C          64.4641   91.6426   12.3937 C.ar    1  UNL1        0.1268
     19 C          64.9969   91.4745   13.7858 C.ar    1  UNL1        0.0316
     20 C          66.0614   92.3987   14.2981 C.ar    1  UNL1        0.0599
     21 CL         66.5942   92.2305   15.6902 Cl      1  UNL1       -0.0822
     22 C          66.5932   93.4911   13.4184 C.ar    1  UNL1        0.0229
     23 C          66.0604   93.6592   12.0264 C.ar    1  UNL1        0.0599
     24 CL         66.5922   94.7517   11.1467 Cl      1  UNL1       -0.0822
     25 C          64.9959   92.7350   11.5140 C.ar    1  UNL1        0.0316
@<TRIPOS>BOND
     1    15    16    2
     2    16    17    2
     3    16     1    1
     4     1     3    1
     5     3     4   ar
     6     4     5   ar
     7     5     6   ar
     8     6     9    1
     9     9    10   ar
    10    10    11   ar
    11    11    12   ar
    12    12    13   ar
    13    13    14   ar
    14     6     7   ar
    15     7     8   ar
    16    16    18    1
    17    18    19   ar
    18    19    20   ar
    19    20    21    1
    20    20    22   ar
    21    22    23   ar
    22    23    24    1
    23    23    25   ar
    24     8     3   ar
    25    25    18   ar
    26    14     9   ar
    27     1     2    1
@<TRIPOS>MOLECULE
*****
 25 27 0 0 0
SMALL
GASTEIGER

@<TRIPOS>ATOM
      1 N          61.5770   87.6006   11.2443 N.pl3   1  UNL1       -0.2150
      2 H          60.6440   87.6507   10.9341 H       1  UNL1        0.1737
      3 C          62.4037   88.8486   11.3402 C.ar    1  UNL1        0.0648
      4 C          63.0795   89.2032   12.6315 C.ar    1  UNL1        0.0160
      5 C          63.9061   90.4512   12.7273 C.ar    1  UNL1        0.0044
      6 C          64.0569   91.3446   11.5318 C.ar    1  UNL1        0.0359
      7 C          63.3811   90.9900   10.2405 C.ar    1  UNL1        0.0044
      8 C          62.5545   89.7420   10.1447 C.ar    1  UNL1        0.0160
      9 C          64.8835   92.5926   11.6277 C.ar    1  UNL1        0.1623
     10 N          65.0589   93.4704   10.4241 N.ar    1  UNL1       -0.2250
     11 C          65.8855   94.7184   10.5199 C.ar    1  UNL1        0.1022
     12 C          66.5368   95.0886   11.8195 C.ar    1  UNL1        0.0414
     13 C          66.3614   94.2108   13.0232 C.ar    1  UNL1        0.1022
     14 N          65.5348   92.9628   12.9272 N.ar    1  UNL1       -0.2250
     15 O          61.3173   85.5992   10.5908 O.2     1  UNL1       -0.1499
     16 S          62.1719   86.2762   11.6210 S.O2    1  UNL1        0.0736
     17 O          63.0265   86.9531   12.6513 O.2     1  UNL1       -0.1499
     18 C          62.7668   84.9517   11.9979 C.ar    1  UNL1        0.1268
     19 C          63.2694   84.7250   13.3928 C.ar    1  UNL1        0.0316
     20 C          63.8644   83.4006   13.7697 C.ar    1  UNL1        0.0599
     21 CL         64.3670   83.1738   15.1647 Cl      1  UNL1       -0.0822
     22 C          63.9567   82.3029   12.7516 C.ar    1  UNL1        0.0229
     23 C          63.4540   82.5297   11.3566 C.ar    1  UNL1        0.0599
     24 CL         63.5464   81.4320   10.3384 Cl      1  UNL1       -0.0822
     25 C          62.8591   83.8541   10.9797 C.ar    1  UNL1        0.0316
@<TRIPOS>BOND
     1    15    16    2
     2    16    17    2
     3    16     1    1
     4     1     3    1
     5     3     4   ar
     6     4     5   ar
     7     5     6   ar
     8     6     9    1
     9     9    10   ar
    10    10    11   ar
    11    11    12   ar
    12    12    13   ar
    13    13    14   ar
    14     6     7   ar
    15     7     8   ar
    16    16    18    1
    17    18    19   ar
    18    19    20   ar
    19    20    21    1
    20    20    22   ar
    21    22    23   ar
    22    23    24    1
    23    23    25   ar
    24     8     3   ar
    25    25    18   ar
    26    14     9   ar
    27     1     2    1
@<TRIPOS>MOLECULE
*****
 25 27 0 0 0
SMALL
GASTEIGER

@<TRIPOS>ATOM
      1 N          61.5521   87.2591   10.8796 N.pl3   1  UNL1       -0.2150
      2 H          60.6723   87.3081   10.4407 H       1  UNL1        0.1737
      3 C          62.3591   88.5070   11.0837 C.ar    1  UNL1        0.0648
      4 C          63.1452   88.6936   12.3474 C.ar    1  UNL1        0.0160
      5 C          63.9521   89.9415   12.5514 C.ar    1  UNL1        0.0044
      6 C          63.9728   91.0028   11.4917 C.ar    1  UNL1        0.0359
      7 C          63.1866   90.8163   10.2279 C.ar    1  UNL1        0.0044
      8 C          62.3798   89.5684   10.0239 C.ar    1  UNL1        0.0160
      9 C          64.7797   92.2508   11.6957 C.ar    1  UNL1        0.1623
     10 N          65.3733   92.5486   13.0407 N.ar    1  UNL1       -0.2250
     11 C          66.1802   93.7966   13.2447 C.ar    1  UNL1        0.1022
     12 C          66.3935   94.7466   12.1038 C.ar    1  UNL1        0.0414
     13 C          65.8000   94.4488   10.7587 C.ar    1  UNL1        0.1022
     14 N          64.9931   93.2009   10.5547 N.ar    1  UNL1       -0.2250
     15 O          62.6476   85.6828    9.9768 O.2     1  UNL1       -0.1499
     16 S          62.0858   85.9365   11.3443 S.O2    1  UNL1        0.0736
     17 O          61.5241   86.1903   12.7117 O.2     1  UNL1       -0.1499
     18 C          62.6195   84.6139   11.8090 C.ar    1  UNL1        0.1268
     19 C          62.7076   83.4625   10.8517 C.ar    1  UNL1        0.0316
     20 C          63.2413   82.1399   11.3164 C.ar    1  UNL1        0.0599
     21 CL         63.3294   80.9885   10.3590 Cl      1  UNL1       -0.0822
     22 C          63.6868   81.9688   12.7384 C.ar    1  UNL1        0.0229
     23 C          63.5987   83.1202   13.6957 C.ar    1  UNL1        0.0599
     24 CL         64.0443   82.9490   15.1178 Cl      1  UNL1       -0.0822
     25 C          63.0651   84.4428   13.2310 C.ar    1  UNL1        0.0316
@<TRIPOS>BOND
     1    15    16    2
     2    16    17    2
     3    16     1    1
     4     1     3    1
     5     3     4   ar
     6     4     5   ar
     7     5     6   ar
     8     6     9    1
     9     9    10   ar
    10    10    11   ar
    11    11    12   ar
    12    12    13   ar
    13    13    14   ar
    14     6     7   ar
    15     7     8   ar
    16    16    18    1
    17    18    19   ar
    18    19    20   ar
    19    20    21    1
    20    20    22   ar
    21    22    23   ar
    22    23    24    1
    23    23    25   ar
    24     8     3   ar
    25    25    18   ar
    26    14     9   ar
    27     1     2    1
