@<TRIPOS>MOLECULE
*****
 36 39 0 0 0
SMALL
GASTEIGER

@<TRIPOS>ATOM
      1 N          61.6769   87.4386   11.3168 N.ar    1  UNL1       -0.2459
      2 C          61.9451   88.3518   10.1574 C.ar    1  UNL1        0.1116
      3 C          60.6248   88.8182    9.6195 C.ar    1  UNL1        0.0908
      4 C          59.5406   88.1933   10.4465 C.ar    1  UNL1        0.1363
      5 N          60.1908   87.3407   11.4954 N.ar    1  UNL1       -0.1661
      6 N          60.4241   89.7465    8.4585 N.am    1  UNL1       -0.2766
      7 C          59.5687   89.3252    7.3006 C.2     1  UNL1        0.2706
      8 O          58.9140   87.9756    7.3037 O.2     1  UNL1       -0.2680
      9 H          60.8537   90.6323    8.4565 H       1  UNL1        0.1553
     10 C          59.3679   90.2535    6.1396 C.ar    1  UNL1        0.1764
     11 C          60.4522   90.8788    5.3130 C.ar    1  UNL1        0.0688
     12 C          59.8020   91.7313    4.2639 C.ar    1  UNL1        0.1945
     13 O          58.3159   91.6328    4.4421 O.2     1  UNL1       -0.3517
     14 N          58.0475   90.7194    5.6014 N.ar    1  UNL1       -0.0722
     15 C          60.5131   92.5402    3.2198 C.ar    1  UNL1        0.1184
     16 C          61.9365   92.2245    2.8672 C.ar    1  UNL1        0.0223
     17 C          62.6476   93.0334    1.8233 C.ar    1  UNL1        0.0032
     18 C          61.9353   94.1580    1.1318 C.ar    1  UNL1        0.0207
     19 C          60.5120   94.4736    1.4844 C.ar    1  UNL1        0.0989
     20 N          59.8008   93.6647    2.5284 N.ar    1  UNL1       -0.2407
     21 C          63.8068   87.5392   12.8011 C.3     1  UNL1        0.0312
     22 C          62.7128   86.7452   12.1510 C.3     1  UNL1        0.1274
     23 C          62.6548   85.2576   12.3351 C.ar    1  UNL1        0.0038
     24 C          62.5445   84.6762   13.7134 C.ar    1  UNL1       -0.0025
     25 C          62.4864   83.1887   13.8975 C.ar    1  UNL1        0.0036
     26 C          62.5386   82.2826   12.7033 C.ar    1  UNL1        0.0714
     27 C          62.6489   82.8640   11.3250 C.ar    1  UNL1        0.0074
     28 C          62.7070   84.3515   11.1409 C.ar    1  UNL1        0.0692
     29 C          62.4805   80.7950   12.8874 C.3     1  UNL1        0.4186
     30 F          62.4225   79.3075   13.0715 F       1  UNL1       -0.1659
     31 F          62.0866   80.9879   14.3218 F       1  UNL1       -0.1659
     32 F          62.8745   80.6021   11.4530 F       1  UNL1       -0.1659
     33 C          62.8172   84.9329    9.7625 C.3     1  UNL1        0.4183
     34 F          62.9275   85.5143    8.3842 F       1  UNL1       -0.1659
     35 F          61.3485   85.2372    9.7734 F       1  UNL1       -0.1659
     36 F          64.2860   84.6286    9.7516 F       1  UNL1       -0.1659
@<TRIPOS>BOND
     1    22    21    1
     2    22    23    1
     3    23    24   ar
     4    24    25   ar
     5    25    26   ar
     6    26    29    1
     7    29    30    1
     8    29    31    1
     9    29    32    1
    10    26    27   ar
    11    27    28   ar
    12    28    33    1
    13    33    34    1
    14    33    35    1
    15    33    36    1
    16    22     1    1
    17     1     2   ar
    18     2     3   ar
    19     3     6    1
    20     6     7   am
    21     7     8    2
    22     7    10    1
    23    10    11   ar
    24    11    12   ar
    25    12    15    1
    26    15    16   ar
    27    16    17   ar
    28    17    18   ar
    29    18    19   ar
    30    19    20   ar
    31    12    13   ar
    32    13    14   ar
    33     3     4   ar
    34     4     5   ar
    35    28    23   ar
    36     5     1   ar
    37    14    10   ar
    38    20    15   ar
    39     6     9    1
@<TRIPOS>MOLECULE
*****
 36 39 0 0 0
SMALL
GASTEIGER

@<TRIPOS>ATOM
      1 N          64.4648   90.4475   15.4049 N.ar    1  UNL1       -0.2459
      2 C          64.6082   89.2019   14.5817 C.ar    1  UNL1        0.1116
      3 C          63.6969   88.1585   15.1569 C.ar    1  UNL1        0.0908
      4 C          62.9903   88.7593   16.3358 C.ar    1  UNL1        0.1363
      5 N          63.4648   90.1740   16.4890 N.ar    1  UNL1       -0.1661
      6 N          63.5229   86.7599   14.6435 N.am    1  UNL1       -0.2766
      7 C          63.3721   85.6205   15.6073 C.2     1  UNL1        0.2706
      8 O          63.3953   85.8797   17.0846 O.2     1  UNL1       -0.2680
      9 H          63.5076   86.5898   13.6739 H       1  UNL1        0.1553
     10 C          63.1980   84.2219   15.0939 C.ar    1  UNL1        0.1764
     11 C          63.2874   83.7917   13.6597 C.ar    1  UNL1        0.0688
     12 C          63.0486   82.3118   13.6040 C.ar    1  UNL1        0.1945
     13 O          62.8118   81.8274   15.0037 O.2     1  UNL1       -0.3517
     14 N          62.9041   83.0080   15.9246 N.ar    1  UNL1       -0.0722
     15 C          63.0471   81.4650   12.3658 C.ar    1  UNL1        0.1184
     16 C          63.4574   82.0586   11.0507 C.ar    1  UNL1        0.0223
     17 C          63.4558   81.2119    9.8126 C.ar    1  UNL1        0.0032
     18 C          63.0439   79.7715    9.8895 C.ar    1  UNL1        0.0207
     19 C          62.6336   79.1780   11.2046 C.ar    1  UNL1        0.0989
     20 N          62.6352   80.0247   12.4428 N.ar    1  UNL1       -0.2407
     21 C          65.3315   92.7251   16.3055 C.3     1  UNL1        0.0312
     22 C          65.1933   91.7398   15.1831 C.3     1  UNL1        0.1274
     23 C          65.7837   92.0467   13.8387 C.ar    1  UNL1        0.0038
     24 C          64.9002   92.1097   12.6282 C.ar    1  UNL1       -0.0025
     25 C          65.4906   92.4165   11.2839 C.ar    1  UNL1        0.0036
     26 C          66.9646   92.6604   11.1501 C.ar    1  UNL1        0.0714
     27 C          67.8481   92.5974   12.3606 C.ar    1  UNL1        0.0074
     28 C          67.2577   92.2905   13.7049 C.ar    1  UNL1        0.0692
     29 C          67.5550   92.9673    9.8057 C.3     1  UNL1        0.4186
     30 F          68.1453   93.2741    8.4614 F       1  UNL1       -0.1659
     31 F          67.1840   94.4111    9.9723 F       1  UNL1       -0.1659
     32 F          67.9259   91.5235    9.6391 F       1  UNL1       -0.1659
     33 C          68.1413   92.2275   14.9154 C.3     1  UNL1        0.4183
     34 F          69.0248   92.1646   16.1259 F       1  UNL1       -0.1659
     35 F          68.2765   93.7212   14.8944 F       1  UNL1       -0.1659
     36 F          68.0061   90.7338   14.9364 F       1  UNL1       -0.1659
@<TRIPOS>BOND
     1    22    21    1
     2    22    23    1
     3    23    24   ar
     4    24    25   ar
     5    25    26   ar
     6    26    29    1
     7    29    30    1
     8    29    31    1
     9    29    32    1
    10    26    27   ar
    11    27    28   ar
    12    28    33    1
    13    33    34    1
    14    33    35    1
    15    33    36    1
    16    22     1    1
    17     1     2   ar
    18     2     3   ar
    19     3     6    1
    20     6     7   am
    21     7     8    2
    22     7    10    1
    23    10    11   ar
    24    11    12   ar
    25    12    15    1
    26    15    16   ar
    27    16    17   ar
    28    17    18   ar
    29    18    19   ar
    30    19    20   ar
    31    12    13   ar
    32    13    14   ar
    33     3     4   ar
    34     4     5   ar
    35    28    23   ar
    36     5     1   ar
    37    14    10   ar
    38    20    15   ar
    39     6     9    1
@<TRIPOS>MOLECULE
*****
 36 39 0 0 0
SMALL
GASTEIGER

@<TRIPOS>ATOM
      1 N          61.7497   87.4228   11.3561 N.ar    1  UNL1       -0.2459
      2 C          61.9988   88.2298   10.1164 C.ar    1  UNL1        0.1116
      3 C          60.7044   88.8718    9.7134 C.ar    1  UNL1        0.0908
      4 C          59.6554   88.4616   10.7040 C.ar    1  UNL1        0.1363
      5 N          60.3014   87.5661   11.7192 N.ar    1  UNL1       -0.1661
      6 N          60.4957   89.7669    8.5280 N.am    1  UNL1       -0.2766
      7 C          59.6023   89.3288    7.4055 C.2     1  UNL1        0.2706
      8 O          58.9175   87.9957    7.4686 O.2     1  UNL1       -0.2680
      9 H          60.9452   90.6418    8.4866 H       1  UNL1        0.1553
     10 C          59.3936   90.2239    6.2201 C.ar    1  UNL1        0.1764
     11 C          60.4726   90.8595    5.3945 C.ar    1  UNL1        0.0688
     12 C          59.8151   91.6689    4.3162 C.ar    1  UNL1        0.1945
     13 O          58.3297   91.5335    4.4754 O.2     1  UNL1       -0.3517
     14 N          58.0692   90.6404    5.6521 N.ar    1  UNL1       -0.0722
     15 C          60.5193   92.4726    3.2636 C.ar    1  UNL1        0.1184
     16 C          61.9530   92.1817    2.9318 C.ar    1  UNL1        0.0223
     17 C          62.6573   92.9853    1.8792 C.ar    1  UNL1        0.0032
     18 C          61.9279   94.0800    1.1582 C.ar    1  UNL1        0.0207
     19 C          60.4943   94.3710    1.4900 C.ar    1  UNL1        0.0989
     20 N          59.7900   93.5673    2.5426 N.ar    1  UNL1       -0.2407
     21 C          63.7666   87.2992   12.9892 C.3     1  UNL1        0.0312
     22 C          62.7699   86.6145   12.1017 C.3     1  UNL1        0.1274
     23 C          62.7933   85.1214   11.9597 C.ar    1  UNL1        0.0038
     24 C          62.6303   84.4939   10.6071 C.ar    1  UNL1       -0.0025
     25 C          62.6537   83.0009   10.4652 C.ar    1  UNL1        0.0036
     26 C          62.8402   82.1352   11.6760 C.ar    1  UNL1        0.0714
     27 C          63.0032   82.7627   13.0286 C.ar    1  UNL1        0.0074
     28 C          62.9798   84.2557   13.1705 C.ar    1  UNL1        0.0692
     29 C          62.8636   80.6421   11.5340 C.3     1  UNL1        0.4186
     30 F          62.8870   79.1491   11.3920 F       1  UNL1       -0.1659
     31 F          62.5297   80.4985   12.9893 F       1  UNL1       -0.1659
     32 F          63.1975   80.7857   10.0787 F       1  UNL1       -0.1659
     33 C          63.1428   84.8833   14.5232 C.3     1  UNL1        0.4183
     34 F          63.3059   85.5107   15.8758 F       1  UNL1       -0.1659
     35 F          64.6268   84.9479   14.3143 F       1  UNL1       -0.1659
     36 F          61.6589   84.8186   14.7321 F       1  UNL1       -0.1659
@<TRIPOS>BOND
     1    22    21    1
     2    22    23    1
     3    23    24   ar
     4    24    25   ar
     5    25    26   ar
     6    26    29    1
     7    29    30    1
     8    29    31    1
     9    29    32    1
    10    26    27   ar
    11    27    28   ar
    12    28    33    1
    13    33    34    1
    14    33    35    1
    15    33    36    1
    16    22     1    1
    17     1     2   ar
    18     2     3   ar
    19     3     6    1
    20     6     7   am
    21     7     8    2
    22     7    10    1
    23    10    11   ar
    24    11    12   ar
    25    12    15    1
    26    15    16   ar
    27    16    17   ar
    28    17    18   ar
    29    18    19   ar
    30    19    20   ar
    31    12    13   ar
    32    13    14   ar
    33     3     4   ar
    34     4     5   ar
    35    28    23   ar
    36     5     1   ar
    37    14    10   ar
    38    20    15   ar
    39     6     9    1
@<TRIPOS>MOLECULE
*****
 36 39 0 0 0
SMALL
GASTEIGER

@<TRIPOS>ATOM
      1 N          63.9333   87.0001   13.5565 N.ar    1  UNL1       -0.2459
      2 C          63.0928   86.9268   12.3163 C.ar    1  UNL1        0.1116
      3 C          62.7405   88.3276   11.9115 C.ar    1  UNL1        0.0908
      4 C          63.3634   89.2666   12.9016 C.ar    1  UNL1        0.1363
      5 N          64.1006   88.4462   13.9182 N.ar    1  UNL1       -0.1661
      6 N          61.9111   88.7203   10.7251 N.am    1  UNL1       -0.2766
      7 C          60.9689   87.7298   10.1077 C.2     1  UNL1        0.2706
      8 O          60.8562   86.3465   10.6769 O.2     1  UNL1       -0.2680
      9 H          61.9851   89.6282   10.3515 H       1  UNL1        0.1553
     10 C          60.1394   88.1225    8.9212 C.ar    1  UNL1        0.1764
     11 C          60.3596   89.3237    8.0503 C.ar    1  UNL1        0.0688
     12 C          59.3003   89.3265    6.9882 C.ar    1  UNL1        0.1945
     13 O          58.4256   88.1270    7.2027 O.2     1  UNL1       -0.3517
     14 N          58.9442   87.3828    8.3974 N.ar    1  UNL1       -0.0722
     15 C          59.1435   90.3493    5.9022 C.ar    1  UNL1        0.1184
     16 C          57.7764   90.8361    5.5222 C.ar    1  UNL1        0.0223
     17 C          57.6195   91.8588    4.4363 C.ar    1  UNL1        0.0032
     18 C          58.8296   92.3949    3.7303 C.ar    1  UNL1        0.0207
     19 C          60.1966   91.9082    4.1103 C.ar    1  UNL1        0.0989
     20 N          60.3535   90.8854    5.1963 N.ar    1  UNL1       -0.2407
     21 C          65.6882   86.0264   15.2064 C.3     1  UNL1        0.0312
     22 C          64.5061   85.8323   14.3037 C.3     1  UNL1        0.1274
     23 C          63.8966   84.4705   14.1482 C.ar    1  UNL1        0.0038
     24 C          64.3992   83.5410   13.0837 C.ar    1  UNL1       -0.0025
     25 C          63.7897   82.1793   12.9283 C.ar    1  UNL1        0.0036
     26 C          62.6776   81.7471   13.8374 C.ar    1  UNL1        0.0714
     27 C          62.1750   82.6766   14.9019 C.ar    1  UNL1        0.0074
     28 C          62.7845   84.0383   15.0574 C.ar    1  UNL1        0.0692
     29 C          62.0682   80.3853   13.6819 C.3     1  UNL1        0.4186
     30 F          61.4588   79.0235   13.5264 F       1  UNL1       -0.1659
     31 F          60.9631   80.7728   14.6193 F       1  UNL1       -0.1659
     32 F          63.1732   79.9978   12.7445 F       1  UNL1       -0.1659
     33 C          62.2819   84.9680   16.1220 C.3     1  UNL1        0.4183
     34 F          61.7794   85.8975   17.1865 F       1  UNL1       -0.1659
     35 F          63.5965   84.8606   16.8363 F       1  UNL1       -0.1659
     36 F          60.9673   85.0753   15.4077 F       1  UNL1       -0.1659
@<TRIPOS>BOND
     1    22    21    1
     2    22    23    1
     3    23    24   ar
     4    24    25   ar
     5    25    26   ar
     6    26    29    1
     7    29    30    1
     8    29    31    1
     9    29    32    1
    10    26    27   ar
    11    27    28   ar
    12    28    33    1
    13    33    34    1
    14    33    35    1
    15    33    36    1
    16    22     1    1
    17     1     2   ar
    18     2     3   ar
    19     3     6    1
    20     6     7   am
    21     7     8    2
    22     7    10    1
    23    10    11   ar
    24    11    12   ar
    25    12    15    1
    26    15    16   ar
    27    16    17   ar
    28    17    18   ar
    29    18    19   ar
    30    19    20   ar
    31    12    13   ar
    32    13    14   ar
    33     3     4   ar
    34     4     5   ar
    35    28    23   ar
    36     5     1   ar
    37    14    10   ar
    38    20    15   ar
    39     6     9    1
@<TRIPOS>MOLECULE
*****
 36 39 0 0 0
SMALL
GASTEIGER

@<TRIPOS>ATOM
      1 N          63.7284   86.1448   13.2088 N.ar    1  UNL1       -0.2459
      2 C          62.8195   86.2395   12.0193 C.ar    1  UNL1        0.1116
      3 C          62.5809   87.6924   11.7327 C.ar    1  UNL1        0.0908
      4 C          63.3424   88.4957   12.7451 C.ar    1  UNL1        0.1363
      5 N          64.0516   87.5392   13.6574 N.ar    1  UNL1       -0.1661
      6 N          61.7303   88.2450   10.6277 N.am    1  UNL1       -0.2766
      7 C          60.8847   87.3233    9.7997 C.2     1  UNL1        0.2706
      8 O          60.8898   85.8491   10.0767 O.2     1  UNL1       -0.2680
      9 H          61.7269   89.2125   10.4459 H       1  UNL1        0.1553
     10 C          60.0340   87.8759    8.6947 C.ar    1  UNL1        0.1764
     11 C          60.3562   89.0711    7.8475 C.ar    1  UNL1        0.0688
     12 C          59.2331   89.2641    6.8721 C.ar    1  UNL1        0.1945
     13 O          58.2168   88.1883    7.1165 O.2     1  UNL1       -0.3517
     14 N          58.7118   87.3302    8.2430 N.ar    1  UNL1       -0.0722
     15 C          59.1422   90.3435    5.8345 C.ar    1  UNL1        0.1184
     16 C          60.3866   90.8470    5.1651 C.ar    1  UNL1        0.0223
     17 C          60.2958   91.9264    4.1275 C.ar    1  UNL1        0.0032
     18 C          58.9606   92.5024    3.7593 C.ar    1  UNL1        0.0207
     19 C          57.7163   91.9989    4.4287 C.ar    1  UNL1        0.0989
     20 N          57.8070   90.9194    5.4663 N.ar    1  UNL1       -0.2407
     21 C          65.6010   84.8285   14.4379 C.3     1  UNL1        0.0312
     22 C          64.2266   84.8781   13.8391 C.3     1  UNL1        0.1274
     23 C          63.3504   83.6610   13.8707 C.ar    1  UNL1        0.0038
     24 C          62.4746   83.3980   15.0597 C.ar    1  UNL1       -0.0025
     25 C          61.5984   82.1810   15.0912 C.ar    1  UNL1        0.0036
     26 C          61.5981   81.2269   13.9337 C.ar    1  UNL1        0.0714
     27 C          62.4739   81.4899   12.7447 C.ar    1  UNL1        0.0074
     28 C          63.3501   82.7070   12.7132 C.ar    1  UNL1        0.0692
     29 C          60.7218   80.0098   13.9653 C.3     1  UNL1        0.4186
     30 F          59.8456   78.7928   13.9968 F       1  UNL1       -0.1659
     31 F          61.8959   79.1547   13.5907 F       1  UNL1       -0.1659
     32 F          59.5477   80.8648   14.3398 F       1  UNL1       -0.1659
     33 C          64.2259   82.9700   11.5242 C.3     1  UNL1        0.4183
     34 F          65.1017   83.2331   10.3352 F       1  UNL1       -0.1659
     35 F          63.1064   83.7201   10.8655 F       1  UNL1       -0.1659
     36 F          65.3455   82.2199   12.1829 F       1  UNL1       -0.1659
@<TRIPOS>BOND
     1    22    21    1
     2    22    23    1
     3    23    24   ar
     4    24    25   ar
     5    25    26   ar
     6    26    29    1
     7    29    30    1
     8    29    31    1
     9    29    32    1
    10    26    27   ar
    11    27    28   ar
    12    28    33    1
    13    33    34    1
    14    33    35    1
    15    33    36    1
    16    22     1    1
    17     1     2   ar
    18     2     3   ar
    19     3     6    1
    20     6     7   am
    21     7     8    2
    22     7    10    1
    23    10    11   ar
    24    11    12   ar
    25    12    15    1
    26    15    16   ar
    27    16    17   ar
    28    17    18   ar
    29    18    19   ar
    30    19    20   ar
    31    12    13   ar
    32    13    14   ar
    33     3     4   ar
    34     4     5   ar
    35    28    23   ar
    36     5     1   ar
    37    14    10   ar
    38    20    15   ar
    39     6     9    1
@<TRIPOS>MOLECULE
*****
 36 39 0 0 0
SMALL
GASTEIGER

@<TRIPOS>ATOM
      1 N          63.3008   90.6913   11.4236 N.ar    1  UNL1       -0.2459
      2 C          63.6497   89.2519   11.6610 C.ar    1  UNL1        0.1116
      3 C          62.3825   88.4516   11.6007 C.ar    1  UNL1        0.0908
      4 C          61.2503   89.3964   11.3260 C.ar    1  UNL1        0.1363
      5 N          61.8178   90.7805   11.2166 N.ar    1  UNL1       -0.1661
      6 N          62.2677   86.9671   11.7830 N.am    1  UNL1       -0.2766
      7 C          63.0461   86.2823   12.8670 C.2     1  UNL1        0.2706
      8 O          63.9393   87.0818   13.7686 O.2     1  UNL1       -0.2680
      9 H          61.6814   86.4424   11.1913 H       1  UNL1        0.1553
     10 C          62.9313   84.7978   13.0493 C.ar    1  UNL1        0.1764
     11 C          62.9580   83.7706   11.9566 C.ar    1  UNL1        0.0688
     12 C          62.8128   82.4179   12.5884 C.ar    1  UNL1        0.1945
     13 O          62.6964   82.6091   14.0716 O.2     1  UNL1       -0.3517
     14 N          62.7696   84.0800   14.3565 N.ar    1  UNL1       -0.0722
     15 C          62.7883   81.1046   11.8641 C.ar    1  UNL1        0.1184
     16 C          63.0627   81.0557   10.3901 C.ar    1  UNL1        0.0223
     17 C          63.0382   79.7425    9.6659 C.ar    1  UNL1        0.0032
     18 C          62.7394   78.4779   10.4154 C.ar    1  UNL1        0.0207
     19 C          62.4651   78.5268   11.8893 C.ar    1  UNL1        0.0989
     20 N          62.4896   79.8401   12.6137 N.ar    1  UNL1       -0.2407
     21 C          64.2014   92.8481   10.2892 C.3     1  UNL1        0.0312
     22 C          64.2653   91.8397   11.3978 C.3     1  UNL1        0.1274
     23 C          65.2939   91.9798   12.4807 C.ar    1  UNL1        0.0038
     24 C          64.9910   91.5001   13.8693 C.ar    1  UNL1       -0.0025
     25 C          66.0195   91.6401   14.9521 C.ar    1  UNL1        0.0036
     26 C          67.3508   92.2599   14.6464 C.ar    1  UNL1        0.0714
     27 C          67.6537   92.7396   13.2578 C.ar    1  UNL1        0.0074
     28 C          66.6252   92.5995   12.1750 C.ar    1  UNL1        0.0692
     29 C          68.3794   92.4000   15.7293 C.3     1  UNL1        0.4186
     30 F          69.4079   92.5400   16.8121 F       1  UNL1       -0.1659
     31 F          67.2939   92.3704   16.7641 F       1  UNL1       -0.1659
     32 F          69.4648   92.4296   14.6944 F       1  UNL1       -0.1659
     33 C          66.9280   93.0793   10.7863 C.3     1  UNL1        0.4183
     34 F          67.2307   93.5589    9.3978 F       1  UNL1       -0.1659
     35 F          67.3388   91.6904   10.3962 F       1  UNL1       -0.1659
     36 F          66.5172   94.4681   11.1765 F       1  UNL1       -0.1659
@<TRIPOS>BOND
     1    22    21    1
     2    22    23    1
     3    23    24   ar
     4    24    25   ar
     5    25    26   ar
     6    26    29    1
     7    29    30    1
     8    29    31    1
     9    29    32    1
    10    26    27   ar
    11    27    28   ar
    12    28    33    1
    13    33    34    1
    14    33    35    1
    15    33    36    1
    16    22     1    1
    17     1     2   ar
    18     2     3   ar
    19     3     6    1
    20     6     7   am
    21     7     8    2
    22     7    10    1
    23    10    11   ar
    24    11    12   ar
    25    12    15    1
    26    15    16   ar
    27    16    17   ar
    28    17    18   ar
    29    18    19   ar
    30    19    20   ar
    31    12    13   ar
    32    13    14   ar
    33     3     4   ar
    34     4     5   ar
    35    28    23   ar
    36     5     1   ar
    37    14    10   ar
    38    20    15   ar
    39     6     9    1
@<TRIPOS>MOLECULE
*****
 36 39 0 0 0
SMALL
GASTEIGER

@<TRIPOS>ATOM
      1 N          63.9940   83.6216   11.5012 N.ar    1  UNL1       -0.2459
      2 C          62.9041   84.5580   11.0708 C.ar    1  UNL1        0.1116
      3 C          62.9227   84.6338    9.5729 C.ar    1  UNL1        0.0908
      4 C          64.0241   83.7442    9.0774 C.ar    1  UNL1        0.1363
      5 N          64.6862   83.1187   10.2692 N.ar    1  UNL1       -0.1661
      6 N          62.0016   85.4551    8.7201 N.am    1  UNL1       -0.2766
      7 C          60.9772   86.3428    9.3623 C.2     1  UNL1        0.2706
      8 O          60.8739   86.4094   10.8573 O.2     1  UNL1       -0.2680
      9 H          62.0694   85.4114    7.7389 H       1  UNL1        0.1553
     10 C          60.0561   87.1640    8.5096 C.ar    1  UNL1        0.1764
     11 C          60.4496   88.3413    7.6674 C.ar    1  UNL1        0.0688
     12 C          59.2164   88.8570    6.9866 C.ar    1  UNL1        0.1945
     13 O          58.0608   87.9985    7.4081 O.2     1  UNL1       -0.3517
     14 N          58.5798   86.9521    8.3494 N.ar    1  UNL1       -0.0722
     15 C          59.1505   90.0259    6.0490 C.ar    1  UNL1        0.1184
     16 C          60.4090   90.5746    5.4446 C.ar    1  UNL1        0.0223
     17 C          60.3431   91.7435    4.5070 C.ar    1  UNL1        0.0032
     18 C          59.0186   92.3639    4.1737 C.ar    1  UNL1        0.0207
     19 C          57.7602   91.8153    4.7781 C.ar    1  UNL1        0.0989
     20 N          57.8260   90.6463    5.7157 N.ar    1  UNL1       -0.2407
     21 C          64.9736   81.9299   13.2124 C.3     1  UNL1        0.0312
     22 C          64.3323   83.2529   12.9153 C.3     1  UNL1        0.1274
     23 C          64.0292   84.2072   14.0322 C.ar    1  UNL1        0.0038
     24 C          64.8748   85.4313   14.2230 C.ar    1  UNL1       -0.0025
     25 C          64.5717   86.3855   15.3399 C.ar    1  UNL1        0.0036
     26 C          63.4229   86.1157   16.2660 C.ar    1  UNL1        0.0714
     27 C          62.5773   84.8916   16.0752 C.ar    1  UNL1        0.0074
     28 C          62.8804   83.9373   14.9583 C.ar    1  UNL1        0.0692
     29 C          63.1199   87.0700   17.3829 C.3     1  UNL1        0.4186
     30 F          62.8168   88.0243   18.4998 F       1  UNL1       -0.1659
     31 F          62.7147   85.9196   18.2560 F       1  UNL1       -0.1659
     32 F          63.5250   88.2205   16.5098 F       1  UNL1       -0.1659
     33 C          62.0348   82.7132   14.7674 C.3     1  UNL1        0.4183
     34 F          61.1892   81.4890   14.5766 F       1  UNL1       -0.1659
     35 F          62.8329   81.9983   15.8171 F       1  UNL1       -0.1659
     36 F          61.2367   83.4281   13.7177 F       1  UNL1       -0.1659
@<TRIPOS>BOND
     1    22    21    1
     2    22    23    1
     3    23    24   ar
     4    24    25   ar
     5    25    26   ar
     6    26    29    1
     7    29    30    1
     8    29    31    1
     9    29    32    1
    10    26    27   ar
    11    27    28   ar
    12    28    33    1
    13    33    34    1
    14    33    35    1
    15    33    36    1
    16    22     1    1
    17     1     2   ar
    18     2     3   ar
    19     3     6    1
    20     6     7   am
    21     7     8    2
    22     7    10    1
    23    10    11   ar
    24    11    12   ar
    25    12    15    1
    26    15    16   ar
    27    16    17   ar
    28    17    18   ar
    29    18    19   ar
    30    19    20   ar
    31    12    13   ar
    32    13    14   ar
    33     3     4   ar
    34     4     5   ar
    35    28    23   ar
    36     5     1   ar
    37    14    10   ar
    38    20    15   ar
    39     6     9    1
@<TRIPOS>MOLECULE
*****
 36 39 0 0 0
SMALL
GASTEIGER

@<TRIPOS>ATOM
      1 N          60.8048   93.5801    2.3264 N.ar    1  UNL1       -0.2459
      2 C          61.4156   92.6643    3.3453 C.ar    1  UNL1        0.1116
      3 C          60.3092   91.8800    3.9861 C.ar    1  UNL1        0.0908
      4 C          59.0145   92.3110    3.3632 C.ar    1  UNL1        0.1363
      5 N          59.3208   93.3617    2.3375 N.ar    1  UNL1       -0.1661
      6 N          60.4694   90.8461    5.0610 N.am    1  UNL1       -0.2766
      7 C          59.2684   90.3535    5.8127 C.2     1  UNL1        0.2706
      8 O          57.9073   90.8947    5.4894 O.2     1  UNL1       -0.2680
      9 H          61.3627   90.4909    5.2732 H       1  UNL1        0.1553
     10 C          59.4286   89.3196    6.8876 C.ar    1  UNL1        0.1764
     11 C          60.5323   89.2659    7.9019 C.ar    1  UNL1        0.0688
     12 C          60.2989   88.0710    8.7781 C.ar    1  UNL1        0.1945
     13 O          59.0510   87.3862    8.3053 O.2     1  UNL1       -0.3517
     14 N          58.5130   88.1579    7.1369 N.ar    1  UNL1       -0.0722
     15 C          61.1621   87.6372    9.9256 C.ar    1  UNL1        0.1184
     16 C          61.2151   86.1906   10.3192 C.ar    1  UNL1        0.0223
     17 C          62.0782   85.7567   11.4666 C.ar    1  UNL1        0.0032
     18 C          62.8883   86.7693   12.2206 C.ar    1  UNL1        0.0207
     19 C          62.8353   88.2158   11.8271 C.ar    1  UNL1        0.0989
     20 N          61.9721   88.6497   10.6795 N.ar    1  UNL1       -0.2407
     21 C          61.8545   95.9263    1.9477 C.3     1  UNL1        0.0312
     22 C          61.5475   94.5449    1.4503 C.3     1  UNL1        0.1274
     23 C          61.9832   94.1282    0.0767 C.ar    1  UNL1        0.0038
     24 C          60.9668   93.9579   -1.0131 C.ar    1  UNL1       -0.0025
     25 C          61.4026   93.5412   -2.3865 C.ar    1  UNL1        0.0036
     26 C          62.8548   93.2949   -2.6702 C.ar    1  UNL1        0.0714
     27 C          63.8712   93.4652   -1.5803 C.ar    1  UNL1        0.0074
     28 C          63.4354   93.8819   -0.2069 C.ar    1  UNL1        0.0692
     29 C          63.2905   92.8782   -4.0437 C.3     1  UNL1        0.4186
     30 F          63.7263   92.4615   -5.4172 F       1  UNL1       -0.1659
     31 F          62.1775   93.6864   -4.6420 F       1  UNL1       -0.1659
     32 F          64.4035   92.0700   -3.4454 F       1  UNL1       -0.1659
     33 C          64.4519   94.0523    0.8830 C.3     1  UNL1        0.4183
     34 F          65.4683   94.2227    1.9729 F       1  UNL1       -0.1659
     35 F          64.7282   95.4477    0.4072 F       1  UNL1       -0.1659
     36 F          64.1757   92.6569    1.3589 F       1  UNL1       -0.1659
@<TRIPOS>BOND
     1    22    21    1
     2    22    23    1
     3    23    24   ar
     4    24    25   ar
     5    25    26   ar
     6    26    29    1
     7    29    30    1
     8    29    31    1
     9    29    32    1
    10    26    27   ar
    11    27    28   ar
    12    28    33    1
    13    33    34    1
    14    33    35    1
    15    33    36    1
    16    22     1    1
    17     1     2   ar
    18     2     3   ar
    19     3     6    1
    20     6     7   am
    21     7     8    2
    22     7    10    1
    23    10    11   ar
    24    11    12   ar
    25    12    15    1
    26    15    16   ar
    27    16    17   ar
    28    17    18   ar
    29    18    19   ar
    30    19    20   ar
    31    12    13   ar
    32    13    14   ar
    33     3     4   ar
    34     4     5   ar
    35    28    23   ar
    36     5     1   ar
    37    14    10   ar
    38    20    15   ar
    39     6     9    1
@<TRIPOS>MOLECULE
*****
 36 39 0 0 0
SMALL
GASTEIGER

@<TRIPOS>ATOM
      1 N          63.4351   85.1023   13.2504 N.ar    1  UNL1       -0.2459
      2 C          62.7355   86.0204   12.2926 C.ar    1  UNL1        0.1116
      3 C          62.2741   85.2045   11.1215 C.ar    1  UNL1        0.0908
      4 C          62.6886   83.7821   11.3556 C.ar    1  UNL1        0.1363
      5 N          63.4061   83.7189   12.6713 N.ar    1  UNL1       -0.1661
      6 N          61.5290   85.7205    9.9263 N.am    1  UNL1       -0.2766
      7 C          60.6474   86.9272   10.0556 C.2     1  UNL1        0.2706
      8 O          60.5109   87.6178   11.3801 O.2     1  UNL1       -0.2680
      9 H          61.6187   85.2672    9.0570 H       1  UNL1        0.1553
     10 C          59.9024   87.4432    8.8603 C.ar    1  UNL1        0.1764
     11 C          60.1444   88.7516    8.1678 C.ar    1  UNL1        0.0688
     12 C          59.1760   88.8583    7.0272 C.ar    1  UNL1        0.1945
     13 O          58.3356   87.6159    7.0148 O.2     1  UNL1       -0.3517
     14 N          58.7845   86.7413    8.1477 N.ar    1  UNL1       -0.0722
     15 C          59.0673   90.0060    6.0675 C.ar    1  UNL1        0.1184
     16 C          60.3041   90.5830    5.4451 C.ar    1  UNL1        0.0223
     17 C          60.1954   91.7306    4.4855 C.ar    1  UNL1        0.0032
     18 C          58.8498   92.3014    4.1481 C.ar    1  UNL1        0.0207
     19 C          57.6130   91.7245    4.7706 C.ar    1  UNL1        0.0989
     20 N          57.7217   90.5767    5.7303 N.ar    1  UNL1       -0.2407
     21 C          64.7096   84.4612   15.4218 C.3     1  UNL1        0.0312
     22 C          64.0550   85.4980   14.5578 C.3     1  UNL1        0.1274
     23 C          64.0201   86.9306   15.0012 C.ar    1  UNL1        0.0038
     24 C          64.6809   87.9895   14.1692 C.ar    1  UNL1       -0.0025
     25 C          64.6460   89.4220   14.6126 C.ar    1  UNL1        0.0036
     26 C          63.9504   89.7956   15.8880 C.ar    1  UNL1        0.0714
     27 C          63.2897   88.7368   16.7200 C.ar    1  UNL1        0.0074
     28 C          63.3246   87.3043   16.2766 C.ar    1  UNL1        0.0692
     29 C          63.9156   91.2282   16.3314 C.3     1  UNL1        0.4186
     30 F          63.8808   92.6608   16.7747 F       1  UNL1       -0.1659
     31 F          62.6779   90.9504   17.1319 F       1  UNL1       -0.1659
     32 F          65.1533   91.5060   15.5308 F       1  UNL1       -0.1659
     33 C          62.6638   86.2453   17.1085 C.3     1  UNL1        0.4183
     34 F          62.0031   85.1864   17.9405 F       1  UNL1       -0.1659
     35 F          63.5173   86.6328   18.2795 F       1  UNL1       -0.1659
     36 F          61.8103   85.8578   15.9375 F       1  UNL1       -0.1659
@<TRIPOS>BOND
     1    22    21    1
     2    22    23    1
     3    23    24   ar
     4    24    25   ar
     5    25    26   ar
     6    26    29    1
     7    29    30    1
     8    29    31    1
     9    29    32    1
    10    26    27   ar
    11    27    28   ar
    12    28    33    1
    13    33    34    1
    14    33    35    1
    15    33    36    1
    16    22     1    1
    17     1     2   ar
    18     2     3   ar
    19     3     6    1
    20     6     7   am
    21     7     8    2
    22     7    10    1
    23    10    11   ar
    24    11    12   ar
    25    12    15    1
    26    15    16   ar
    27    16    17   ar
    28    17    18   ar
    29    18    19   ar
    30    19    20   ar
    31    12    13   ar
    32    13    14   ar
    33     3     4   ar
    34     4     5   ar
    35    28    23   ar
    36     5     1   ar
    37    14    10   ar
    38    20    15   ar
    39     6     9    1
