@<TRIPOS>MOLECULE
*****
 31 33 0 0 0
SMALL
GASTEIGER

@<TRIPOS>ATOM
      1 C          61.7127   88.4069   11.2376 C.ar    1  UNL1        0.0577
      2 C          62.7295   88.3370   12.3381 C.ar    1  UNL1        0.0462
      3 C          63.6341   89.5048   12.5989 C.ar    1  UNL1        0.1602
      4 F          64.6509   89.4348   13.6995 F       1  UNL1       -0.2027
      5 C          63.5219   90.7425   11.7591 C.ar    1  UNL1        0.1534
      6 C          62.5051   90.8125   10.6584 C.ar    1  UNL1        0.0351
      7 C          61.6006   89.6447   10.3977 C.ar    1  UNL1        0.0722
      8 CL         60.5838   89.7147    9.2971 Cl      1  UNL1       -0.0809
      9 S          64.4265   91.9103   12.0198 S.O2    1  UNL1        0.0772
     10 O          64.8631   91.8925   10.5849 O.2     1  UNL1       -0.1498
     11 O          63.9899   91.9282   13.4547 O.2     1  UNL1       -0.1498
     12 N          65.3311   93.0781   12.2805 N.pl3   1  UNL1       -0.1936
     13 H          65.2532   93.8928   11.7334 H       1  UNL1        0.1758
     14 C          66.3543   93.0045   13.3749 C.ar    1  UNL1        0.1786
     15 N          66.4540   93.9285   14.5523 N.ar    1  UNL1       -0.2214
     16 C          67.6188   93.4891   15.3891 C.ar    1  UNL1        0.1079
     17 C          68.2391   92.2935   14.7287 C.ar    1  UNL1        0.0588
     18 S          67.4576   91.9941   13.4839 S.2     1  UNL1       -0.0497
     19 N          60.8081   87.2391   10.9768 N.pl3   1  UNL1       -0.3319
     20 H          60.0219   87.0879   11.5498 H       1  UNL1        0.1468
     21 C          61.1014   86.3018    9.8430 C.3     1  UNL1        0.0870
     22 C          62.4674   85.6982    9.7031 C.3     1  UNL1        0.0212
     23 N          64.1641   81.2391   13.3413 N.3     1  UNL1       -0.3222
     24 C          63.7399   82.3539   12.4318 C.3     1  UNL1        0.0508
     25 C          62.8713   83.4592   12.9548 C.3     1  UNL1        0.0155
     26 C          62.4471   84.5740   12.0452 C.3     1  UNL1        0.0014
     27 C          62.8916   84.5834   10.6126 C.3     1  UNL1        0.0018
     28 C          63.7602   83.4781   10.0896 C.3     1  UNL1        0.0014
     29 C          64.1844   82.3633   10.9992 C.3     1  UNL1        0.0155
     30 H          63.7742   81.3920   14.2713 H       1  UNL1        0.1188
     31 H          65.1822   81.2161   13.3991 H       1  UNL1        0.1188
@<TRIPOS>BOND
     1    24    23    1
     2    24    25    1
     3    25    26    1
     4    26    27    1
     5    27    22    1
     6    22    21    1
     7    21    19    1
     8    19     1    1
     9     1     2   ar
    10     2     3   ar
    11     3     4    1
    12     3     5   ar
    13     5     9    1
    14     9    10    2
    15     9    11    2
    16     9    12    1
    17    12    14    1
    18    14    15   ar
    19    15    16   ar
    20    16    17   ar
    21    17    18   ar
    22     5     6   ar
    23     6     7   ar
    24     7     8    1
    25    27    28    1
    26    28    29    1
    27    29    24    1
    28     7     1   ar
    29    18    14   ar
    30    23    30    1
    31    23    31    1
    32    19    20    1
    33    12    13    1
@<TRIPOS>MOLECULE
*****
 31 33 0 0 0
SMALL
GASTEIGER

@<TRIPOS>ATOM
      1 C          63.4417   89.2437   15.7492 C.ar    1  UNL1        0.0577
      2 C          63.1335   88.3651   16.9252 C.ar    1  UNL1        0.0462
      3 C          63.3183   86.8801   16.8209 C.ar    1  UNL1        0.1602
      4 F          63.0100   86.0016   17.9969 F       1  UNL1       -0.2027
      5 C          63.8114   86.2738   15.5406 C.ar    1  UNL1        0.1534
      6 C          64.1197   87.1525   14.3646 C.ar    1  UNL1        0.0351
      7 C          63.9349   88.6373   14.4689 C.ar    1  UNL1        0.0722
      8 CL         64.2431   89.5160   13.2928 Cl      1  UNL1       -0.0809
      9 S          63.9962   84.7889   15.4363 S.O2    1  UNL1        0.0772
     10 O          65.4044   84.9974   14.9636 O.2     1  UNL1       -0.1498
     11 O          62.5881   84.5804   15.9090 O.2     1  UNL1       -0.1498
     12 N          64.1811   83.3041   15.3320 N.pl3   1  UNL1       -0.1936
     13 H          64.7005   82.8234   16.0164 H       1  UNL1        0.1758
     14 C          63.5745   82.5515   14.1849 C.ar    1  UNL1        0.1786
     15 N          63.1828   81.1035   14.1890 N.ar    1  UNL1       -0.2214
     16 C          62.6194   80.7719   12.8389 C.ar    1  UNL1        0.1079
     17 C          62.6629   82.0150   12.0004 C.ar    1  UNL1        0.0588
     18 S          63.2532   83.1148   12.8323 S.2     1  UNL1       -0.0497
     19 N          63.2569   90.7286   15.8534 N.pl3   1  UNL1       -0.3319
     20 H          62.5978   91.1840   15.2812 H       1  UNL1        0.1468
     21 C          64.0763   91.5197   16.8296 C.3     1  UNL1        0.0870
     22 C          64.8548   92.7132   16.3614 C.3     1  UNL1        0.0212
     23 N          70.0498   91.9554   13.4567 N.3     1  UNL1       -0.3222
     24 C          68.7511   92.1449   14.1828 C.3     1  UNL1        0.0508
     25 C          67.4518   91.9659   13.4550 C.3     1  UNL1        0.0155
     26 C          66.1531   92.1554   14.1812 C.3     1  UNL1        0.0014
     27 C          66.1536   92.5238   15.6352 C.3     1  UNL1        0.0018
     28 C          67.4528   92.7027   16.3630 C.3     1  UNL1        0.0014
     29 C          68.7516   92.5133   15.6369 C.3     1  UNL1        0.0155
     30 H          69.8631   91.7099   12.4844 H       1  UNL1        0.1188
     31 H          70.5814   91.2065   13.9004 H       1  UNL1        0.1188
@<TRIPOS>BOND
     1    24    23    1
     2    24    25    1
     3    25    26    1
     4    26    27    1
     5    27    22    1
     6    22    21    1
     7    21    19    1
     8    19     1    1
     9     1     2   ar
    10     2     3   ar
    11     3     4    1
    12     3     5   ar
    13     5     9    1
    14     9    10    2
    15     9    11    2
    16     9    12    1
    17    12    14    1
    18    14    15   ar
    19    15    16   ar
    20    16    17   ar
    21    17    18   ar
    22     5     6   ar
    23     6     7   ar
    24     7     8    1
    25    27    28    1
    26    28    29    1
    27    29    24    1
    28     7     1   ar
    29    18    14   ar
    30    23    30    1
    31    23    31    1
    32    19    20    1
    33    12    13    1
@<TRIPOS>MOLECULE
*****
 31 33 0 0 0
SMALL
GASTEIGER

@<TRIPOS>ATOM
      1 C          62.2351   88.2441   10.9146 C.ar    1  UNL1        0.0577
      2 C          63.1057   88.3841   12.1280 C.ar    1  UNL1        0.0462
      3 C          63.4675   87.1728   12.9353 C.ar    1  UNL1        0.1602
      4 F          64.3381   87.3128   14.1488 F       1  UNL1       -0.2027
      5 C          62.9587   85.8214   12.5292 C.ar    1  UNL1        0.1534
      6 C          62.0881   85.6814   11.3157 C.ar    1  UNL1        0.0351
      7 C          61.7263   86.8927   10.5084 C.ar    1  UNL1        0.0722
      8 CL         60.8557   86.7527    9.2949 Cl      1  UNL1       -0.0809
      9 S          63.3205   84.6101   13.3365 S.O2    1  UNL1        0.0772
     10 O          62.4891   85.1209   14.4756 O.2     1  UNL1       -0.1498
     11 O          64.1520   84.0992   12.1974 O.2     1  UNL1       -0.1498
     12 N          63.6823   83.3988   14.1438 N.pl3   1  UNL1       -0.1936
     13 H          64.4274   83.4398   14.7860 H       1  UNL1        0.1758
     14 C          62.9089   82.1249   13.9726 C.ar    1  UNL1        0.1786
     15 N          61.4822   81.8986   14.3766 N.ar    1  UNL1       -0.2214
     16 C          61.1180   80.4876   14.0211 C.ar    1  UNL1        0.1079
     17 C          62.3197   79.8418   13.3973 C.ar    1  UNL1        0.0588
     18 S          63.4265   80.8538   13.3673 S.2     1  UNL1       -0.0497
     19 N          61.8733   89.4554   10.1072 N.pl3   1  UNL1       -0.3319
     20 H          61.4508   89.3503    9.2242 H       1  UNL1        0.1468
     21 C          62.1552   90.8269   10.6452 C.3     1  UNL1        0.0870
     22 C          63.3593   91.5856   10.1716 C.3     1  UNL1        0.0212
     23 N          67.9032   92.6580   13.9402 N.3     1  UNL1       -0.3222
     24 C          66.7672   92.3899   12.9981 C.3     1  UNL1        0.0508
     25 C          65.4957   91.7811   13.5104 C.3     1  UNL1        0.0155
     26 C          64.3597   91.5129   12.5682 C.3     1  UNL1        0.0014
     27 C          64.4953   91.8537   11.1137 C.3     1  UNL1        0.0018
     28 C          65.7668   92.4625   10.6014 C.3     1  UNL1        0.0014
     29 C          66.9028   92.7306   11.5436 C.3     1  UNL1        0.0155
     30 H          67.6399   92.3673   14.8818 H       1  UNL1        0.1188
     31 H          68.1172   93.6553   13.9397 H       1  UNL1        0.1188
@<TRIPOS>BOND
     1    24    23    1
     2    24    25    1
     3    25    26    1
     4    26    27    1
     5    27    22    1
     6    22    21    1
     7    21    19    1
     8    19     1    1
     9     1     2   ar
    10     2     3   ar
    11     3     4    1
    12     3     5   ar
    13     5     9    1
    14     9    10    2
    15     9    11    2
    16     9    12    1
    17    12    14    1
    18    14    15   ar
    19    15    16   ar
    20    16    17   ar
    21    17    18   ar
    22     5     6   ar
    23     6     7   ar
    24     7     8    1
    25    27    28    1
    26    28    29    1
    27    29    24    1
    28     7     1   ar
    29    18    14   ar
    30    23    30    1
    31    23    31    1
    32    19    20    1
    33    12    13    1
@<TRIPOS>MOLECULE
*****
 31 33 0 0 0
SMALL
GASTEIGER

@<TRIPOS>ATOM
      1 C          61.1867   90.1623   10.4140 C.ar    1  UNL1        0.0577
      2 C          62.5424   90.7607   10.1816 C.ar    1  UNL1        0.0462
      3 C          63.5285   90.8445   11.3089 C.ar    1  UNL1        0.1602
      4 F          64.8842   91.4429   11.0766 F       1  UNL1       -0.2027
      5 C          63.1588   90.3301   12.6686 C.ar    1  UNL1        0.1534
      6 C          61.8030   89.7317   12.9009 C.ar    1  UNL1        0.0351
      7 C          60.8170   89.6479   11.7736 C.ar    1  UNL1        0.0722
      8 CL         59.4612   89.0495   12.0060 Cl      1  UNL1       -0.0809
      9 S          64.1447   90.4139   13.7959 S.O2    1  UNL1        0.0772
     10 O          64.0282   91.9093   13.7865 O.2     1  UNL1       -0.1498
     11 O          64.2612   88.9185   13.8052 O.2     1  UNL1       -0.1498
     12 N          65.1307   90.4978   14.9231 N.pl3   1  UNL1       -0.1936
     13 H          65.0525   89.8878   15.6919 H       1  UNL1        0.1758
     14 C          66.2358   91.5111   14.8792 C.ar    1  UNL1        0.1786
     15 N          67.3197   91.5894   13.8452 N.ar    1  UNL1       -0.2214
     16 C          68.2048   92.7507   14.1885 C.ar    1  UNL1        0.1079
     17 C          67.6680   93.3903   15.4346 C.ar    1  UNL1        0.0588
     18 S          66.4511   92.6242   15.8615 S.2     1  UNL1       -0.0497
     19 N          60.2007   90.0784    9.2867 N.pl3   1  UNL1       -0.3319
     20 H          59.5605   90.8112    9.1371 H       1  UNL1        0.1468
     21 C          60.1902   88.8781    8.3872 C.3     1  UNL1        0.0870
     22 C          59.8518   87.5269    8.9437 C.3     1  UNL1        0.0212
     23 N          64.2302   83.6378   10.2494 N.3     1  UNL1       -0.3222
     24 C          63.1356   84.6100    9.9229 C.3     1  UNL1        0.0508
     25 C          62.2914   85.1854   11.0212 C.3     1  UNL1        0.0155
     26 C          61.1968   86.1576   10.6948 C.3     1  UNL1        0.0014
     27 C          60.9464   86.5546    9.2701 C.3     1  UNL1        0.0018
     28 C          61.7907   85.9793    8.1719 C.3     1  UNL1        0.0014
     29 C          62.8853   85.0070    8.4983 C.3     1  UNL1        0.0155
     30 H          64.2585   83.4834   11.2572 H       1  UNL1        0.1188
     31 H          65.1249   84.0160    9.9381 H       1  UNL1        0.1188
@<TRIPOS>BOND
     1    24    23    1
     2    24    25    1
     3    25    26    1
     4    26    27    1
     5    27    22    1
     6    22    21    1
     7    21    19    1
     8    19     1    1
     9     1     2   ar
    10     2     3   ar
    11     3     4    1
    12     3     5   ar
    13     5     9    1
    14     9    10    2
    15     9    11    2
    16     9    12    1
    17    12    14    1
    18    14    15   ar
    19    15    16   ar
    20    16    17   ar
    21    17    18   ar
    22     5     6   ar
    23     6     7   ar
    24     7     8    1
    25    27    28    1
    26    28    29    1
    27    29    24    1
    28     7     1   ar
    29    18    14   ar
    30    23    30    1
    31    23    31    1
    32    19    20    1
    33    12    13    1
@<TRIPOS>MOLECULE
*****
 31 33 0 0 0
SMALL
GASTEIGER

@<TRIPOS>ATOM
      1 C          63.9354   90.3399   14.0504 C.ar    1  UNL1        0.0577
      2 C          65.1903   90.8936   14.6576 C.ar    1  UNL1        0.0462
      3 C          66.0143   91.8908   13.8982 C.ar    1  UNL1        0.1602
      4 F          67.2691   92.4444   14.5054 F       1  UNL1       -0.2027
      5 C          65.5834   92.3343   12.5316 C.ar    1  UNL1        0.1534
      6 C          64.3284   91.7806   11.9244 C.ar    1  UNL1        0.0351
      7 C          63.5045   90.7835   12.6838 C.ar    1  UNL1        0.0722
      8 CL         62.2496   90.2298   12.0765 Cl      1  UNL1       -0.0809
      9 S          66.4073   93.3315   11.7722 S.O2    1  UNL1        0.0772
     10 O          66.5790   92.3416   10.6585 O.2     1  UNL1       -0.1498
     11 O          66.2356   94.3215   12.8860 O.2     1  UNL1       -0.1498
     12 N          67.2313   94.3287   11.0129 N.pl3   1  UNL1       -0.1936
     13 H          68.2040   94.3755   11.1574 H       1  UNL1        0.1758
     14 C          66.5732   95.2547   10.0333 C.ar    1  UNL1        0.1786
     15 N          65.3474   96.0809   10.2877 N.ar    1  UNL1       -0.2214
     16 C          65.0420   96.8539    9.0390 C.ar    1  UNL1        0.1079
     17 C          66.0791   96.5054    8.0128 C.ar    1  UNL1        0.0588
     18 S          67.0254   95.5170    8.6273 S.2     1  UNL1       -0.0497
     19 N          63.1114   89.3427   14.8097 N.pl3   1  UNL1       -0.3319
     20 H          62.5921   88.6616   14.3242 H       1  UNL1        0.1468
     21 C          63.0787   89.3831   16.3088 C.3     1  UNL1        0.0870
     22 C          63.0905   88.1051   17.0940 C.3     1  UNL1        0.0212
     23 N          63.9082   82.8662   14.2860 N.3     1  UNL1       -0.3222
     24 C          63.7037   84.1760   14.9880 C.3     1  UNL1        0.0508
     25 C          64.6513   85.3131   14.7450 C.3     1  UNL1        0.0155
     26 C          64.4469   86.6228   15.4470 C.3     1  UNL1        0.0014
     27 C          63.2949   86.7954   16.3920 C.3     1  UNL1        0.0018
     28 C          62.3474   85.6583   16.6350 C.3     1  UNL1        0.0014
     29 C          62.5518   84.3486   15.9330 C.3     1  UNL1        0.0155
     30 H          64.7317   82.9264   13.6871 H       1  UNL1        0.1188
     31 H          63.0887   82.6539   13.7169 H       1  UNL1        0.1188
@<TRIPOS>BOND
     1    24    23    1
     2    24    25    1
     3    25    26    1
     4    26    27    1
     5    27    22    1
     6    22    21    1
     7    21    19    1
     8    19     1    1
     9     1     2   ar
    10     2     3   ar
    11     3     4    1
    12     3     5   ar
    13     5     9    1
    14     9    10    2
    15     9    11    2
    16     9    12    1
    17    12    14    1
    18    14    15   ar
    19    15    16   ar
    20    16    17   ar
    21    17    18   ar
    22     5     6   ar
    23     6     7   ar
    24     7     8    1
    25    27    28    1
    26    28    29    1
    27    29    24    1
    28     7     1   ar
    29    18    14   ar
    30    23    30    1
    31    23    31    1
    32    19    20    1
    33    12    13    1
@<TRIPOS>MOLECULE
*****
 31 33 0 0 0
SMALL
GASTEIGER

@<TRIPOS>ATOM
      1 C          61.7512   88.5163   11.4567 C.ar    1  UNL1        0.0577
      2 C          62.8185   88.5049   12.5106 C.ar    1  UNL1        0.0462
      3 C          63.7460   89.6753   12.6515 C.ar    1  UNL1        0.1602
      4 F          64.8133   89.6639   13.7054 F       1  UNL1       -0.2027
      5 C          63.6062   90.8572   11.7385 C.ar    1  UNL1        0.1534
      6 C          62.5389   90.8686   10.6845 C.ar    1  UNL1        0.0351
      7 C          61.6114   89.6981   10.5437 C.ar    1  UNL1        0.0722
      8 CL         60.5441   89.7095    9.4897 Cl      1  UNL1       -0.0809
      9 S          64.5337   92.0276   11.8793 S.O2    1  UNL1        0.0772
     10 O          64.7545   92.0311   10.3957 O.2     1  UNL1       -0.1498
     11 O          64.3129   92.0240   13.3629 O.2     1  UNL1       -0.1498
     12 N          65.4612   93.1980   12.0202 N.pl3   1  UNL1       -0.1936
     13 H          65.3853   93.7952   12.7991 H       1  UNL1        0.1758
     14 C          66.5043   93.4585   10.9741 C.ar    1  UNL1        0.1786
     15 N          67.6475   92.5525   10.6242 N.ar    1  UNL1       -0.2214
     16 C          68.4371   93.2048    9.5282 C.ar    1  UNL1        0.1079
     17 C          67.7819   94.5139    9.2009 C.ar    1  UNL1        0.0588
     18 S          66.5875   94.6706   10.0945 S.2     1  UNL1       -0.0497
     19 N          60.8237   87.3458   11.3158 N.pl3   1  UNL1       -0.3319
     20 H          59.9952   87.3077   11.8463 H       1  UNL1        0.1468
     21 C          61.1585   86.2336   10.3668 C.3     1  UNL1        0.0870
     22 C          62.5234   85.6119   10.3915 C.3     1  UNL1        0.0212
     23 N          63.6644   81.0261   14.0886 N.3     1  UNL1       -0.3222
     24 C          63.3792   82.1725   13.1644 C.3     1  UNL1        0.0508
     25 C          62.9006   83.4816   13.7186 C.3     1  UNL1        0.0155
     26 C          62.6154   84.6280   12.7944 C.3     1  UNL1        0.0014
     27 C          62.8086   84.4654   11.3158 C.3     1  UNL1        0.0018
     28 C          63.2872   83.1563   10.7615 C.3     1  UNL1        0.0014
     29 C          63.5724   82.0099   11.6858 C.3     1  UNL1        0.0155
     30 H          63.4804   81.3110   15.0506 H       1  UNL1        0.1188
     31 H          64.6422   80.7505   13.9968 H       1  UNL1        0.1188
@<TRIPOS>BOND
     1    24    23    1
     2    24    25    1
     3    25    26    1
     4    26    27    1
     5    27    22    1
     6    22    21    1
     7    21    19    1
     8    19     1    1
     9     1     2   ar
    10     2     3   ar
    11     3     4    1
    12     3     5   ar
    13     5     9    1
    14     9    10    2
    15     9    11    2
    16     9    12    1
    17    12    14    1
    18    14    15   ar
    19    15    16   ar
    20    16    17   ar
    21    17    18   ar
    22     5     6   ar
    23     6     7   ar
    24     7     8    1
    25    27    28    1
    26    28    29    1
    27    29    24    1
    28     7     1   ar
    29    18    14   ar
    30    23    30    1
    31    23    31    1
    32    19    20    1
    33    12    13    1
@<TRIPOS>MOLECULE
*****
 31 33 0 0 0
SMALL
GASTEIGER

@<TRIPOS>ATOM
      1 C          63.5516   89.6091   13.3835 C.ar    1  UNL1        0.0577
      2 C          63.3123   88.4778   12.4281 C.ar    1  UNL1        0.0462
      3 C          63.4840   87.0599   12.8865 C.ar    1  UNL1        0.1602
      4 F          63.2447   85.9286   11.9311 F       1  UNL1       -0.2027
      5 C          63.8949   86.7733   14.3004 C.ar    1  UNL1        0.1534
      6 C          64.1342   87.9047   15.2558 C.ar    1  UNL1        0.0351
      7 C          63.9625   89.3226   14.7974 C.ar    1  UNL1        0.0722
      8 CL         64.2018   90.4540   15.7528 Cl      1  UNL1       -0.0809
      9 S          64.0666   85.3555   14.7589 S.O2    1  UNL1        0.0772
     10 O          65.5536   85.4889   14.6147 O.2     1  UNL1       -0.1498
     11 O          62.5795   85.2221   14.9031 O.2     1  UNL1       -0.1498
     12 N          64.2382   83.9377   15.2173 N.pl3   1  UNL1       -0.1936
     13 H          64.6983   83.7472   16.0666 H       1  UNL1        0.1758
     14 C          63.7089   82.8099   14.3818 C.ar    1  UNL1        0.1786
     15 N          62.7477   81.7518   14.8360 N.ar    1  UNL1       -0.2214
     16 C          62.4926   80.8303   13.6803 C.ar    1  UNL1        0.1079
     17 C          63.2963   81.3189   12.5117 C.ar    1  UNL1        0.0588
     18 S          64.0480   82.5423   12.9453 S.2     1  UNL1       -0.0497
     19 N          63.3800   91.0270   12.9251 N.pl3   1  UNL1       -0.3319
     20 H          62.6566   91.5809   13.2982 H       1  UNL1        0.1468
     21 C          64.3104   91.6010   11.8981 C.3     1  UNL1        0.0870
     22 C          65.4902   92.4207   12.3296 C.3     1  UNL1        0.0212
     23 N          67.9661   96.3481    8.5289 N.3     1  UNL1       -0.3222
     24 C          67.3471   95.3663    9.4791 C.3     1  UNL1        0.0508
     25 C          67.4262   93.8956    9.1949 C.3     1  UNL1        0.0155
     26 C          66.8072   92.9137   10.1451 C.3     1  UNL1        0.0014
     27 C          66.1092   93.4025   11.3794 C.3     1  UNL1        0.0018
     28 C          66.0301   94.8732   11.6636 C.3     1  UNL1        0.0014
     29 C          66.6491   95.8551   10.7135 C.3     1  UNL1        0.0155
     30 H          68.3941   95.8453    7.7514 H       1  UNL1        0.1188
     31 H          68.6792   96.8902    9.0169 H       1  UNL1        0.1188
@<TRIPOS>BOND
     1    24    23    1
     2    24    25    1
     3    25    26    1
     4    26    27    1
     5    27    22    1
     6    22    21    1
     7    21    19    1
     8    19     1    1
     9     1     2   ar
    10     2     3   ar
    11     3     4    1
    12     3     5   ar
    13     5     9    1
    14     9    10    2
    15     9    11    2
    16     9    12    1
    17    12    14    1
    18    14    15   ar
    19    15    16   ar
    20    16    17   ar
    21    17    18   ar
    22     5     6   ar
    23     6     7   ar
    24     7     8    1
    25    27    28    1
    26    28    29    1
    27    29    24    1
    28     7     1   ar
    29    18    14   ar
    30    23    30    1
    31    23    31    1
    32    19    20    1
    33    12    13    1
@<TRIPOS>MOLECULE
*****
 31 33 0 0 0
SMALL
GASTEIGER

@<TRIPOS>ATOM
      1 C          62.8285   89.6023   11.9301 C.ar    1  UNL1        0.0577
      2 C          63.8115   89.7444   13.0541 C.ar    1  UNL1        0.0462
      3 C          64.8331   90.8424   13.0228 C.ar    1  UNL1        0.1602
      4 F          65.8161   90.9845   14.1468 F       1  UNL1       -0.2027
      5 C          64.8716   91.7982   11.8674 C.ar    1  UNL1        0.1534
      6 C          63.8885   91.6561   10.7433 C.ar    1  UNL1        0.0351
      7 C          62.8670   90.5582   10.7747 C.ar    1  UNL1        0.0722
      8 CL         61.8840   90.4160    9.6506 Cl      1  UNL1       -0.0809
      9 S          65.8931   92.8962   11.8361 S.O2    1  UNL1        0.0772
     10 O          65.4084   93.3852   13.1686 O.2     1  UNL1       -0.1498
     11 O          66.3778   92.4071   10.5035 O.2     1  UNL1       -0.1498
     12 N          66.9146   93.9941   11.8047 N.pl3   1  UNL1       -0.1936
     13 H          67.6114   94.0381   12.4988 H       1  UNL1        0.1758
     14 C          66.8746   95.0249   10.7157 C.ar    1  UNL1        0.1786
     15 N          67.9208   95.2350    9.6615 N.ar    1  UNL1       -0.2214
     16 C          67.4740   96.3665    8.7841 C.ar    1  UNL1        0.1079
     17 C          66.1517   96.8559    9.2960 C.ar    1  UNL1        0.0588
     18 S          65.7812   96.0268   10.4898 S.2     1  UNL1       -0.0497
     19 N          61.8069   88.5044   11.9614 N.pl3   1  UNL1       -0.3319
     20 H          61.4136   88.2222   12.8187 H       1  UNL1        0.1468
     21 C          61.3846   87.8363   10.6865 C.3     1  UNL1        0.0870
     22 C          61.0129   86.3831   10.6887 C.3     1  UNL1        0.0212
     23 N          65.1624   82.2270   11.9170 N.3     1  UNL1       -0.3222
     24 C          64.1250   83.2660   11.6099 C.3     1  UNL1        0.0508
     25 C          63.8339   83.6374   10.1861 C.3     1  UNL1        0.0155
     26 C          62.7966   84.6764    9.8790 C.3     1  UNL1        0.0014
     27 C          62.0503   85.3441   10.9957 C.3     1  UNL1        0.0018
     28 C          62.3414   84.9727   12.4196 C.3     1  UNL1        0.0014
     29 C          63.3787   83.9337   12.7266 C.3     1  UNL1        0.0155
     30 H          65.5660   81.8818   11.0462 H       1  UNL1        0.1188
     31 H          64.7296   81.4532   12.4214 H       1  UNL1        0.1188
@<TRIPOS>BOND
     1    24    23    1
     2    24    25    1
     3    25    26    1
     4    26    27    1
     5    27    22    1
     6    22    21    1
     7    21    19    1
     8    19     1    1
     9     1     2   ar
    10     2     3   ar
    11     3     4    1
    12     3     5   ar
    13     5     9    1
    14     9    10    2
    15     9    11    2
    16     9    12    1
    17    12    14    1
    18    14    15   ar
    19    15    16   ar
    20    16    17   ar
    21    17    18   ar
    22     5     6   ar
    23     6     7   ar
    24     7     8    1
    25    27    28    1
    26    28    29    1
    27    29    24    1
    28     7     1   ar
    29    18    14   ar
    30    23    30    1
    31    23    31    1
    32    19    20    1
    33    12    13    1
@<TRIPOS>MOLECULE
*****
 31 33 0 0 0
SMALL
GASTEIGER

@<TRIPOS>ATOM
      1 C          64.2963   89.5365   13.9452 C.ar    1  UNL1        0.0577
      2 C          65.4751   90.0904   14.6892 C.ar    1  UNL1        0.0462
      3 C          66.0992   91.3821   14.2509 C.ar    1  UNL1        0.1602
      4 F          67.2780   91.9360   14.9950 F       1  UNL1       -0.2027
      5 C          65.5444   92.1199   13.0686 C.ar    1  UNL1        0.1534
      6 C          64.3656   91.5660   12.3246 C.ar    1  UNL1        0.0351
      7 C          63.7415   90.2743   12.7628 C.ar    1  UNL1        0.0722
      8 CL         62.5627   89.7204   12.0188 Cl      1  UNL1       -0.0809
      9 S          66.1684   93.4116   12.6303 S.O2    1  UNL1        0.0772
     10 O          66.4368   92.8228   11.2771 O.2     1  UNL1       -0.1498
     11 O          65.9001   94.0004   13.9835 O.2     1  UNL1       -0.1498
     12 N          66.7925   94.7032   12.1921 N.pl3   1  UNL1       -0.1936
     13 H          67.2385   95.2830   12.8510 H       1  UNL1        0.1758
     14 C          66.7370   95.1117   10.7497 C.ar    1  UNL1        0.1786
     15 N          67.7278   94.7358    9.6882 N.ar    1  UNL1       -0.2214
     16 C          67.2840   95.3595    8.3982 C.ar    1  UNL1        0.1079
     17 C          66.0189   96.1209    8.6625 C.ar    1  UNL1        0.0588
     18 S          65.6808   95.9677   10.1158 S.2     1  UNL1       -0.0497
     19 N          63.6722   88.2448   14.3834 N.pl3   1  UNL1       -0.3319
     20 H          62.6933   88.1409   14.3681 H       1  UNL1        0.1468
     21 C          64.5396   87.1114   14.8451 C.3     1  UNL1        0.0870
     22 C          63.9271   85.9364   15.5481 C.3     1  UNL1        0.0212
     23 N          62.8295   80.8706   12.5260 N.3     1  UNL1       -0.3222
     24 C          63.1039   82.1371   13.2816 C.3     1  UNL1        0.0508
     25 C          62.2669   82.4957   14.4735 C.3     1  UNL1        0.0155
     26 C          62.5413   83.7621   15.2290 C.3     1  UNL1        0.0014
     27 C          63.6527   84.6700   14.7926 C.3     1  UNL1        0.0018
     28 C          64.4897   84.3114   13.6007 C.3     1  UNL1        0.0014
     29 C          64.2153   83.0450   12.8451 C.3     1  UNL1        0.0155
     30 H          62.0461   80.3803   12.9576 H       1  UNL1        0.1188
     31 H          63.6573   80.2752   12.5485 H       1  UNL1        0.1188
@<TRIPOS>BOND
     1    24    23    1
     2    24    25    1
     3    25    26    1
     4    26    27    1
     5    27    22    1
     6    22    21    1
     7    21    19    1
     8    19     1    1
     9     1     2   ar
    10     2     3   ar
    11     3     4    1
    12     3     5   ar
    13     5     9    1
    14     9    10    2
    15     9    11    2
    16     9    12    1
    17    12    14    1
    18    14    15   ar
    19    15    16   ar
    20    16    17   ar
    21    17    18   ar
    22     5     6   ar
    23     6     7   ar
    24     7     8    1
    25    27    28    1
    26    28    29    1
    27    29    24    1
    28     7     1   ar
    29    18    14   ar
    30    23    30    1
    31    23    31    1
    32    19    20    1
    33    12    13    1
