@<TRIPOS>MOLECULE
*****
 36 39 0 0 0
SMALL
GASTEIGER

@<TRIPOS>ATOM
      1 C          63.0534   86.9076   13.0355 C.ar    1  UNL1        0.0502
      2 C          63.8722   87.4705   14.1592 C.ar    1  UNL1        0.0143
      3 C          64.4414   88.8542   14.0524 C.ar    1  UNL1       -0.0030
      4 C          64.1918   89.6750   12.8220 C.ar    1  UNL1       -0.0223
      5 C          63.3731   89.1121   11.6983 C.ar    1  UNL1       -0.0034
      6 C          62.8039   87.7284   11.8050 C.ar    1  UNL1        0.0089
      7 C          64.7610   91.0587   12.7152 C.3     1  UNL1        0.0251
      8 C          64.6033   91.8385   11.4436 C.3     1  UNL1        0.0217
      9 C          65.1726   93.2223   11.3369 C.3     1  UNL1        0.0729
     10 N          65.8995   93.8261   12.5018 N.3     1  UNL1       -0.2650
     11 C          66.0571   93.0462   13.7735 C.3     1  UNL1        0.0729
     12 C          65.4879   91.6626   13.8801 C.3     1  UNL1        0.0217
     13 C          66.4687   95.2098   12.3951 C.3     1  UNL1        0.1582
     14 C          66.2421   96.0202   11.1535 C.2     1  UNL1        0.2357
     15 N          65.0031   96.8550   11.0184 N.am    1  UNL1       -0.3277
     16 O          67.2544   95.9960   10.0469 O.2     1  UNL1       -0.2738
     17 H          64.3387   96.8709   11.7447 H       1  UNL1        0.1450
     18 H          64.8544   97.3870   10.2035 H       1  UNL1        0.1450
     19 C          61.9851   87.1654   10.6813 C.2     1  UNL1       -0.0253
     20 C          62.5813   86.1460    9.7565 C.2     1  UNL1       -0.0303
     21 C          61.7626   85.5830    8.6328 C.3     1  UNL1        0.0257
     22 C          60.3476   86.0394    8.4339 C.3     1  UNL1        0.0050
     23 C          59.7514   87.0589    9.3587 C.3     1  UNL1        0.0050
     24 C          60.5702   87.6218   10.4824 C.3     1  UNL1        0.0261
     25 C          63.3920   84.3570   13.3958 C.2     1  UNL1        0.2837
     26 O          64.8690   84.5738   13.5425 O.2     1  UNL1       -0.2665
     27 N          62.4842   85.5239   13.1423 N.am    1  UNL1       -0.2779
     28 H          61.5148   85.3816   13.0459 H       1  UNL1        0.1553
     29 C          61.2986   81.1297   13.9127 C.ar    1  UNL1        0.1469
     30 C          62.5954   80.5583   13.4208 C.ar    1  UNL1        0.1282
     31 N          63.5374   81.6977   13.1673 N.ar    1  UNL1       -0.2205
     32 C          62.8229   82.9733   13.5025 C.ar    1  UNL1        0.1958
     33 N          61.4392   82.6222   13.9631 N.ar    1  UNL1       -0.3257
     34 H          60.7452   83.2595   14.2485 H       1  UNL1        0.1682
     35 N          58.8532   79.5625   14.6636 N.1     1  UNL1       -0.1893
     36 C          60.0759   80.3461   14.2882 C.1     1  UNL1        0.1194
@<TRIPOS>BOND
     1    35    36    3
     2    36    29    1
     3    29    30   ar
     4    30    31   ar
     5    31    32   ar
     6    32    25    1
     7    25    26    2
     8    25    27   am
     9    27     1    1
    10     1     2   ar
    11     2     3   ar
    12     3     4   ar
    13     4     7    1
    14     7     8    1
    15     8     9    1
    16     9    10    1
    17    10    13    1
    18    13    14    1
    19    14    15   am
    20    14    16    2
    21    10    11    1
    22    11    12    1
    23     4     5   ar
    24     5     6   ar
    25     6    19    1
    26    19    20    2
    27    20    21    1
    28    21    22    1
    29    22    23    1
    30    23    24    1
    31    32    33   ar
    32    33    29   ar
    33     6     1   ar
    34    24    19    1
    35    12     7    1
    36    27    28    1
    37    15    17    1
    38    15    18    1
    39    33    34    1
@<TRIPOS>MOLECULE
*****
 36 39 0 0 0
SMALL
GASTEIGER

@<TRIPOS>ATOM
      1 C          60.6208   87.5147    9.8511 C.ar    1  UNL1        0.0502
      2 C          59.6824   87.0277    8.7871 C.ar    1  UNL1        0.0143
      3 C          59.3629   87.9026    7.6113 C.ar    1  UNL1       -0.0030
      4 C          59.9818   89.2644    7.4995 C.ar    1  UNL1       -0.0223
      5 C          60.9201   89.7514    8.5636 C.ar    1  UNL1       -0.0034
      6 C          61.2396   88.8766    9.7394 C.ar    1  UNL1        0.0089
      7 C          59.6622   90.1392    6.3237 C.3     1  UNL1        0.0251
      8 C          60.7649   90.6340    5.4354 C.3     1  UNL1        0.0217
      9 C          60.4454   91.5089    4.2595 C.3     1  UNL1        0.0729
     10 N          59.0231   91.8889    3.9720 N.3     1  UNL1       -0.2650
     11 C          57.9203   91.3940    4.8603 C.3     1  UNL1        0.0729
     12 C          58.2399   90.5192    6.0361 C.3     1  UNL1        0.0217
     13 C          58.7035   92.7637    2.7962 C.3     1  UNL1        0.1582
     14 C          59.7267   92.9775    1.7205 C.2     1  UNL1        0.2357
     15 N          59.6572   92.1823    0.4504 N.am    1  UNL1       -0.3277
     16 O          60.8195   93.9865    1.9147 O.2     1  UNL1       -0.2738
     17 H          58.9400   91.5201    0.3229 H       1  UNL1        0.1450
     18 H          60.3288   92.3227   -0.2556 H       1  UNL1        0.1450
     19 C          62.1780   89.3635   10.8036 C.2     1  UNL1       -0.0253
     20 C          62.6825   90.7757   10.7696 C.2     1  UNL1       -0.0303
     21 C          63.6208   91.2627   11.8337 C.3     1  UNL1        0.0257
     22 C          64.0547   90.3375   12.9318 C.3     1  UNL1        0.0050
     23 C          63.5502   88.9253   12.9658 C.3     1  UNL1        0.0050
     24 C          62.6118   88.4383   11.9016 C.3     1  UNL1        0.0261
     25 C          62.0007   85.5854   10.9110 C.2     1  UNL1        0.2837
     26 O          62.7416   85.4057    9.6191 O.2     1  UNL1       -0.2665
     27 N          60.9403   86.6399   11.0270 N.am    1  UNL1       -0.2779
     28 H          60.4541   86.7578   11.8749 H       1  UNL1        0.1553
     29 C          62.8466   82.7677   13.4429 C.ar    1  UNL1        0.1469
     30 C          62.7776   83.9609   14.3494 C.ar    1  UNL1        0.1282
     31 N          62.4524   85.1616   13.5113 N.ar    1  UNL1       -0.2205
     32 C          62.3203   84.7105   12.0868 C.ar    1  UNL1        0.1958
     33 N          62.5639   83.2311   12.0446 N.ar    1  UNL1       -0.3257
     34 H          62.5422   82.6638   11.2402 H       1  UNL1        0.1682
     35 N          63.4447   79.9496   14.2798 N.1     1  UNL1       -0.1893
     36 C          63.1456   81.3586   13.8613 C.1     1  UNL1        0.1194
@<TRIPOS>BOND
     1    35    36    3
     2    36    29    1
     3    29    30   ar
     4    30    31   ar
     5    31    32   ar
     6    32    25    1
     7    25    26    2
     8    25    27   am
     9    27     1    1
    10     1     2   ar
    11     2     3   ar
    12     3     4   ar
    13     4     7    1
    14     7     8    1
    15     8     9    1
    16     9    10    1
    17    10    13    1
    18    13    14    1
    19    14    15   am
    20    14    16    2
    21    10    11    1
    22    11    12    1
    23     4     5   ar
    24     5     6   ar
    25     6    19    1
    26    19    20    2
    27    20    21    1
    28    21    22    1
    29    22    23    1
    30    23    24    1
    31    32    33   ar
    32    33    29   ar
    33     6     1   ar
    34    24    19    1
    35    12     7    1
    36    27    28    1
    37    15    17    1
    38    15    18    1
    39    33    34    1
