@<TRIPOS>MOLECULE
*****
 30 33 0 0 0
SMALL
GASTEIGER

@<TRIPOS>ATOM
      1 C          62.1492   87.7164   10.8799 C.3     1  UNL1        0.0324
      2 C          63.0302   88.1633   12.0086 C.ar    1  UNL1       -0.0071
      3 C          63.6264   89.5397   11.9950 C.ar    1  UNL1        0.0115
      4 C          64.5074   89.9866   13.1237 C.ar    1  UNL1        0.0476
      5 C          64.7922   89.0572   14.2661 C.ar    1  UNL1        0.0158
      6 C          64.1960   87.6808   14.2797 C.ar    1  UNL1        0.0156
      7 C          63.3150   87.2339   13.1510 C.ar    1  UNL1        0.0466
      8 N          65.1037   91.3630   13.1101 N.pl3   1  UNL1       -0.3061
      9 C          65.5378   92.1477   14.3124 C.3     1  UNL1        0.0923
     10 C          66.0728   93.4660   13.8371 C.3     1  UNL1        0.0391
     11 C          65.9694   93.4959   12.3409 C.3     1  UNL1        0.0790
     12 C          65.3704   92.1962   11.8916 C.3     1  UNL1        0.1067
     13 N          66.3909   94.6270   11.4505 N.3     1  UNL1       -0.2736
     14 C          66.1061   96.0819   11.6786 C.3     1  UNL1        0.0721
     15 C          66.7104   96.8559   10.5446 C.3     1  UNL1        0.0187
     16 C          67.3687   95.8793    9.6158 C.3     1  UNL1        0.0174
     17 C          67.1713   94.5017   10.1756 C.3     1  UNL1        0.0576
     18 C          67.6671   93.2234    9.5674 C.3     1  UNL1        0.0173
     19 N          62.7188   85.8575   13.1646 N.am    1  UNL1       -0.2806
     20 C          63.6077   84.6564   13.2949 C.2     1  UNL1        0.2493
     21 O          65.0929   84.8316   13.4116 O.2     1  UNL1       -0.2698
     22 H          61.7440   85.7425   13.0881 H       1  UNL1        0.1552
     23 C          63.0115   83.2800   13.3086 C.ar    1  UNL1        0.0520
     24 C          63.1972   82.3705   12.1303 C.ar    1  UNL1        0.0338
     25 C          62.6010   80.9942   12.1439 C.ar    1  UNL1        0.1403
     26 F          62.7867   80.0847   10.9656 F       1  UNL1       -0.2042
     27 C          61.8192   80.5273   13.3358 C.ar    1  UNL1        0.0293
     28 C          61.6335   81.4368   14.5141 C.ar    1  UNL1       -0.0018
     29 C          62.2296   82.8131   14.5005 C.ar    1  UNL1       -0.0173
     30 C          62.0439   83.7226   15.6788 C.3     1  UNL1        0.0312
@<TRIPOS>BOND
     1     1     2    1
     2     2     3   ar
     3     3     4   ar
     4     4     8    1
     5     8     9    1
     6     9    10    1
     7    10    11    1
     8    11    13    1
     9    13    14    1
    10    14    15    1
    11    15    16    1
    12    16    17    1
    13    17    18    1
    14    11    12    1
    15     4     5   ar
    16     5     6   ar
    17     6     7   ar
    18     7    19    1
    19    19    20   am
    20    20    21    2
    21    20    23    1
    22    23    24   ar
    23    24    25   ar
    24    25    26    1
    25    25    27   ar
    26    27    28   ar
    27    28    29   ar
    28    29    30    1
    29     7     2   ar
    30    29    23   ar
    31    12     8    1
    32    17    13    1
    33    19    22    1
@<TRIPOS>MOLECULE
*****
 30 33 0 0 0
SMALL
GASTEIGER

@<TRIPOS>ATOM
      1 C          65.5281   91.2277   14.9933 C.3     1  UNL1        0.0324
      2 C          64.7860   90.2602   14.1197 C.ar    1  UNL1       -0.0071
      3 C          64.6062   88.8376   14.5601 C.ar    1  UNL1        0.0115
      4 C          63.8642   87.8701   13.6865 C.ar    1  UNL1        0.0476
      5 C          63.3020   88.3251   12.3724 C.ar    1  UNL1        0.0158
      6 C          63.4818   89.7476   11.9320 C.ar    1  UNL1        0.0156
      7 C          64.2238   90.7151   12.8056 C.ar    1  UNL1        0.0466
      8 N          63.6844   86.4475   14.1270 N.pl3   1  UNL1       -0.3061
      9 C          63.8588   85.9282   15.5234 C.3     1  UNL1        0.0923
     10 C          63.5808   84.4542   15.5078 C.3     1  UNL1        0.0391
     11 C          63.2346   84.0626   14.1018 C.3     1  UNL1        0.0790
     12 C          63.2986   85.2945   13.2485 C.3     1  UNL1        0.1067
     13 N          62.8857   82.6816   13.6318 N.3     1  UNL1       -0.2736
     14 C          61.9482   81.7291   14.3128 C.3     1  UNL1        0.0721
     15 C          61.8961   80.4694   13.5001 C.3     1  UNL1        0.0187
     16 C          62.8013   80.6434   12.3168 C.3     1  UNL1        0.0174
     17 C          63.4129   82.0107   12.3981 C.3     1  UNL1        0.0576
     18 C          64.3816   82.6030   11.4179 C.3     1  UNL1        0.0173
     19 N          64.4036   92.1377   12.3651 N.am    1  UNL1       -0.2806
     20 C          65.7194   92.5883   11.8032 C.2     1  UNL1        0.2493
     21 O          66.8554   91.6163   11.6817 O.2     1  UNL1       -0.2698
     22 H          63.6580   92.7757   12.4448 H       1  UNL1        0.1552
     23 C          65.8992   94.0109   11.3626 C.ar    1  UNL1        0.0520
     24 C          65.6478   94.3909    9.9335 C.ar    1  UNL1        0.0338
     25 C          65.8276   95.8134    9.4930 C.ar    1  UNL1        0.1403
     26 F          65.5762   96.1934    8.0639 F       1  UNL1       -0.2042
     27 C          66.2587   96.8559   10.4816 C.ar    1  UNL1        0.0293
     28 C          66.5101   96.4758   11.9107 C.ar    1  UNL1       -0.0018
     29 C          66.3303   95.0533   12.3512 C.ar    1  UNL1       -0.0173
     30 C          66.5817   94.6733   13.7803 C.3     1  UNL1        0.0312
@<TRIPOS>BOND
     1     1     2    1
     2     2     3   ar
     3     3     4   ar
     4     4     8    1
     5     8     9    1
     6     9    10    1
     7    10    11    1
     8    11    13    1
     9    13    14    1
    10    14    15    1
    11    15    16    1
    12    16    17    1
    13    17    18    1
    14    11    12    1
    15     4     5   ar
    16     5     6   ar
    17     6     7   ar
    18     7    19    1
    19    19    20   am
    20    20    21    2
    21    20    23    1
    22    23    24   ar
    23    24    25   ar
    24    25    26    1
    25    25    27   ar
    26    27    28   ar
    27    28    29   ar
    28    29    30    1
    29     7     2   ar
    30    29    23   ar
    31    12     8    1
    32    17    13    1
    33    19    22    1
@<TRIPOS>MOLECULE
*****
 30 33 0 0 0
SMALL
GASTEIGER

@<TRIPOS>ATOM
      1 C          60.1511   85.3369    7.6437 C.3     1  UNL1        0.0324
      2 C          60.1888   86.8085    7.9318 C.ar    1  UNL1       -0.0071
      3 C          59.8431   87.7929    6.8541 C.ar    1  UNL1        0.0115
      4 C          59.8808   89.2645    7.1423 C.ar    1  UNL1        0.0476
      5 C          60.2643   89.7517    8.5081 C.ar    1  UNL1        0.0158
      6 C          60.6100   88.7673    9.5858 C.ar    1  UNL1        0.0156
      7 C          60.5723   87.2957    9.2976 C.ar    1  UNL1        0.0466
      8 N          59.5351   90.2489    6.0645 N.pl3   1  UNL1       -0.3061
      9 C          58.1726   90.8128    5.7895 C.3     1  UNL1        0.0923
     10 C          58.2867   91.7546    4.6276 C.3     1  UNL1        0.0391
     11 C          59.7197   91.7727    4.1844 C.3     1  UNL1        0.0790
     12 C          60.4912   90.8421    5.0725 C.3     1  UNL1        0.1067
     13 N          60.2822   92.5797    3.0521 N.3     1  UNL1       -0.2736
     14 C          59.5210   93.5481    2.1962 C.3     1  UNL1        0.0721
     15 C          60.4731   94.1269    1.1919 C.3     1  UNL1        0.0187
     16 C          61.8228   93.5162    1.4273 C.3     1  UNL1        0.0174
     17 C          61.7048   92.5600    2.5769 C.3     1  UNL1        0.0576
     18 C          62.8146   91.7298    3.1507 C.3     1  UNL1        0.0173
     19 N          60.9180   86.3113   10.3754 N.am    1  UNL1       -0.2806
     20 C          62.2204   85.5690   10.3235 C.2     1  UNL1        0.2493
     21 O          63.1770   85.8110    9.1938 O.2     1  UNL1       -0.2698
     22 H          60.2901   86.1525   11.1169 H       1  UNL1        0.1552
     23 C          62.5661   84.5846   11.4012 C.ar    1  UNL1        0.0520
     24 C          62.3841   83.1152   11.1613 C.ar    1  UNL1        0.0338
     25 C          62.7298   82.1308   12.2390 C.ar    1  UNL1        0.1403
     26 F          62.5477   80.6613   11.9991 F       1  UNL1       -0.2042
     27 C          63.2575   82.6159   13.5566 C.ar    1  UNL1        0.0293
     28 C          63.4396   84.0853   13.7965 C.ar    1  UNL1       -0.0018
     29 C          63.0939   85.0697   12.7188 C.ar    1  UNL1       -0.0173
     30 C          63.2759   86.5391   12.9587 C.3     1  UNL1        0.0312
@<TRIPOS>BOND
     1     1     2    1
     2     2     3   ar
     3     3     4   ar
     4     4     8    1
     5     8     9    1
     6     9    10    1
     7    10    11    1
     8    11    13    1
     9    13    14    1
    10    14    15    1
    11    15    16    1
    12    16    17    1
    13    17    18    1
    14    11    12    1
    15     4     5   ar
    16     5     6   ar
    17     6     7   ar
    18     7    19    1
    19    19    20   am
    20    20    21    2
    21    20    23    1
    22    23    24   ar
    23    24    25   ar
    24    25    26    1
    25    25    27   ar
    26    27    28   ar
    27    28    29   ar
    28    29    30    1
    29     7     2   ar
    30    29    23   ar
    31    12     8    1
    32    17    13    1
    33    19    22    1
@<TRIPOS>MOLECULE
*****
 30 33 0 0 0
SMALL
GASTEIGER

@<TRIPOS>ATOM
      1 C          64.0399   92.7833    1.9351 C.3     1  UNL1        0.0324
      2 C          62.5758   92.9670    2.2049 C.ar    1  UNL1       -0.0071
      3 C          61.8941   92.1289    3.2455 C.ar    1  UNL1        0.0115
      4 C          60.4300   92.3126    3.5153 C.ar    1  UNL1        0.0476
      5 C          59.6477   93.3343    2.7446 C.ar    1  UNL1        0.0158
      6 C          60.3295   94.1724    1.7040 C.ar    1  UNL1        0.0156
      7 C          61.7936   93.9887    1.4342 C.ar    1  UNL1        0.0466
      8 N          59.7482   91.4745    4.5560 N.pl3   1  UNL1       -0.3061
      9 C          58.3022   91.5570    4.9460 C.3     1  UNL1        0.0923
     10 C          58.0531   90.5403    6.0203 C.3     1  UNL1        0.0391
     11 C          59.3453   89.8293    6.2943 C.3     1  UNL1        0.0790
     12 C          60.3929   90.4068    5.3893 C.3     1  UNL1        0.1067
     13 N          59.5532   88.7335    7.2972 N.3     1  UNL1       -0.2736
     14 C          59.3112   87.2710    7.0679 C.3     1  UNL1        0.0721
     15 C          59.6481   86.5414    8.3345 C.3     1  UNL1        0.0187
     16 C          60.0984   87.5529    9.3464 C.3     1  UNL1        0.0174
     17 C          60.0398   88.9077    8.7053 C.3     1  UNL1        0.0576
     18 C          60.4038   90.2084    9.3578 C.3     1  UNL1        0.0173
     19 N          62.4753   94.8268    0.3935 N.am    1  UNL1       -0.2806
     20 C          62.6184   94.3123   -1.0081 C.2     1  UNL1        0.2493
     21 O          62.0798   92.9598   -1.3693 O.2     1  UNL1       -0.2698
     22 H          62.8289   95.7145    0.6306 H       1  UNL1        0.1552
     23 C          63.3002   95.1504   -2.0488 C.ar    1  UNL1        0.0520
     24 C          64.7222   95.5840   -1.8490 C.ar    1  UNL1        0.0338
     25 C          65.4040   96.4221   -2.8896 C.ar    1  UNL1        0.1403
     26 F          66.8260   96.8557   -2.6898 F       1  UNL1       -0.2042
     27 C          64.6638   96.8265   -4.1299 C.ar    1  UNL1        0.0293
     28 C          63.2417   96.3930   -4.3296 C.ar    1  UNL1       -0.0018
     29 C          62.5600   95.5549   -3.2891 C.ar    1  UNL1       -0.0173
     30 C          61.1380   95.1213   -3.4888 C.3     1  UNL1        0.0312
@<TRIPOS>BOND
     1     1     2    1
     2     2     3   ar
     3     3     4   ar
     4     4     8    1
     5     8     9    1
     6     9    10    1
     7    10    11    1
     8    11    13    1
     9    13    14    1
    10    14    15    1
    11    15    16    1
    12    16    17    1
    13    17    18    1
    14    11    12    1
    15     4     5   ar
    16     5     6   ar
    17     6     7   ar
    18     7    19    1
    19    19    20   am
    20    20    21    2
    21    20    23    1
    22    23    24   ar
    23    24    25   ar
    24    25    26    1
    25    25    27   ar
    26    27    28   ar
    27    28    29   ar
    28    29    30    1
    29     7     2   ar
    30    29    23   ar
    31    12     8    1
    32    17    13    1
    33    19    22    1
@<TRIPOS>MOLECULE
*****
 30 33 0 0 0
SMALL
GASTEIGER

@<TRIPOS>ATOM
      1 C          70.5425   76.2249   14.9393 C.3     1  UNL1        0.0324
      2 C          71.5427   76.3747   13.8316 C.ar    1  UNL1       -0.0071
      3 C          71.5243   77.5989   12.9650 C.ar    1  UNL1        0.0115
      4 C          72.5245   77.7487   11.8572 C.ar    1  UNL1        0.0476
      5 C          73.5431   76.6744   11.6160 C.ar    1  UNL1        0.0158
      6 C          73.5615   75.4502   12.4826 C.ar    1  UNL1        0.0156
      7 C          72.5613   75.3004   13.5904 C.ar    1  UNL1        0.0466
      8 N          72.5061   78.9730   10.9906 N.pl3   1  UNL1       -0.3061
      9 C          72.6258   80.3909   11.4650 C.3     1  UNL1        0.0923
     10 C          72.5584   81.2884   10.2650 C.3     1  UNL1        0.0391
     11 C          72.3969   80.4251    9.0489 C.3     1  UNL1        0.0790
     12 C          72.3646   78.9941    9.4974 C.3     1  UNL1        0.1067
     13 N          72.2871   80.9081    7.6331 N.3     1  UNL1       -0.2736
     14 C          71.8620   82.2798    7.2000 C.3     1  UNL1        0.0721
     15 C          71.8953   82.3236    5.7010 C.3     1  UNL1        0.0187
     16 C          72.3410   80.9790    5.2077 C.3     1  UNL1        0.0174
     17 C          72.5832   80.1042    6.4019 C.3     1  UNL1        0.0576
     18 C          73.0411   78.6761    6.3703 C.3     1  UNL1        0.0173
     19 N          72.5797   74.0761   14.4570 N.am    1  UNL1       -0.2806
     20 C          71.6674   72.9259   14.1497 C.2     1  UNL1        0.2493
     21 O          70.7366   72.9998   12.9758 O.2     1  UNL1       -0.2698
     22 H          73.1906   74.0276   15.2275 H       1  UNL1        0.1552
     23 C          71.6858   71.7016   15.0163 C.ar    1  UNL1        0.0520
     24 C          71.1398   71.7625   16.4121 C.ar    1  UNL1        0.0338
     25 C          71.1583   70.5384   17.2787 C.ar    1  UNL1        0.1403
     26 F          70.6123   70.5993   18.6745 F       1  UNL1       -0.2042
     27 C          71.7227   69.2533   16.7496 C.ar    1  UNL1        0.0293
     28 C          72.2687   69.1925   15.3538 C.ar    1  UNL1       -0.0018
     29 C          72.2503   70.4166   14.4872 C.ar    1  UNL1       -0.0173
     30 C          72.7963   70.3557   13.0914 C.3     1  UNL1        0.0312
@<TRIPOS>BOND
     1     1     2    1
     2     2     3   ar
     3     3     4   ar
     4     4     8    1
     5     8     9    1
     6     9    10    1
     7    10    11    1
     8    11    13    1
     9    13    14    1
    10    14    15    1
    11    15    16    1
    12    16    17    1
    13    17    18    1
    14    11    12    1
    15     4     5   ar
    16     5     6   ar
    17     6     7   ar
    18     7    19    1
    19    19    20   am
    20    20    21    2
    21    20    23    1
    22    23    24   ar
    23    24    25   ar
    24    25    26    1
    25    25    27   ar
    26    27    28   ar
    27    28    29   ar
    28    29    30    1
    29     7     2   ar
    30    29    23   ar
    31    12     8    1
    32    17    13    1
    33    19    22    1
@<TRIPOS>MOLECULE
*****
 30 33 0 0 0
SMALL
GASTEIGER

@<TRIPOS>ATOM
      1 C          60.0574   95.4019    1.1058 C.3     1  UNL1        0.0324
      2 C          60.7332   94.2650    1.8133 C.ar    1  UNL1       -0.0071
      3 C          59.9773   93.4557    2.8250 C.ar    1  UNL1        0.0115
      4 C          60.6532   92.3188    3.5325 C.ar    1  UNL1        0.0476
      5 C          62.0849   91.9910    3.2283 C.ar    1  UNL1        0.0158
      6 C          62.8408   92.8003    2.2165 C.ar    1  UNL1        0.0156
      7 C          62.1650   93.9372    1.5090 C.ar    1  UNL1        0.0466
      8 N          59.8972   91.5095    4.5443 N.pl3   1  UNL1       -0.3061
      9 C          58.4295   91.6116    4.8365 C.3     1  UNL1        0.0923
     10 C          58.1014   90.6213    5.9143 C.3     1  UNL1        0.0391
     11 C          59.3664   89.9071    6.2882 C.3     1  UNL1        0.0790
     12 C          60.4762   90.4561    5.4415 C.3     1  UNL1        0.1067
     13 N          59.4983   88.8326    7.3265 N.3     1  UNL1       -0.2736
     14 C          59.0601   87.4057    7.1792 C.3     1  UNL1        0.0721
     15 C          59.3826   86.6876    8.4561 C.3     1  UNL1        0.0187
     16 C          60.0201   87.6708    9.3925 C.3     1  UNL1        0.0174
     17 C          60.0916   88.9965    8.6944 C.3     1  UNL1        0.0576
     18 C          60.6572   90.2637    9.2641 C.3     1  UNL1        0.0173
     19 N          62.9210   94.7465    0.4972 N.am    1  UNL1       -0.2806
     20 C          62.9837   94.2925   -0.9310 C.2     1  UNL1        0.2493
     21 O          62.2904   93.0292   -1.3475 O.2     1  UNL1       -0.2698
     22 H          63.3760   95.5756    0.7706 H       1  UNL1        0.1552
     23 C          63.7397   95.1017   -1.9428 C.ar    1  UNL1        0.0520
     24 C          63.2564   95.1700   -3.3612 C.ar    1  UNL1        0.0338
     25 C          64.0124   95.9792   -4.3729 C.ar    1  UNL1        0.1403
     26 F          63.5291   96.0474   -5.7913 F       1  UNL1       -0.2042
     27 C          65.2515   96.7201   -3.9663 C.ar    1  UNL1        0.0293
     28 C          65.7348   96.6519   -2.5479 C.ar    1  UNL1       -0.0018
     29 C          64.9789   95.8427   -1.5362 C.ar    1  UNL1       -0.0173
     30 C          65.4621   95.7744   -0.1178 C.3     1  UNL1        0.0312
@<TRIPOS>BOND
     1     1     2    1
     2     2     3   ar
     3     3     4   ar
     4     4     8    1
     5     8     9    1
     6     9    10    1
     7    10    11    1
     8    11    13    1
     9    13    14    1
    10    14    15    1
    11    15    16    1
    12    16    17    1
    13    17    18    1
    14    11    12    1
    15     4     5   ar
    16     5     6   ar
    17     6     7   ar
    18     7    19    1
    19    19    20   am
    20    20    21    2
    21    20    23    1
    22    23    24   ar
    23    24    25   ar
    24    25    26    1
    25    25    27   ar
    26    27    28   ar
    27    28    29   ar
    28    29    30    1
    29     7     2   ar
    30    29    23   ar
    31    12     8    1
    32    17    13    1
    33    19    22    1
