@<TRIPOS>MOLECULE
*****
 28 31 0 0 0
SMALL
GASTEIGER

@<TRIPOS>ATOM
      1 C          62.1470   87.1720   11.5298 C.3     1  UNL1        0.1573
      2 C          63.1454   88.2082   11.9536 C.3     1  UNL1        0.1276
      3 N          62.7306   89.6448   12.0729 N.pl3   1  UNL1       -0.2740
      4 C          61.3175   90.0452   11.7685 C.3     1  UNL1        0.1257
      5 C          60.3191   89.0089   11.3447 C.3     1  UNL1        0.1640
      6 O          60.7339   87.5724   11.2254 O.3     1  UNL1       -0.3483
      7 C          63.7290   90.6809   12.4967 C.ar    1  UNL1        0.2036
      8 N          64.4247   91.5183   11.4648 N.ar    1  UNL1       -0.2133
      9 C          65.4231   92.5545   11.8886 C.ar    1  UNL1        0.1065
     10 C          65.7258   92.7533   13.3443 C.ar    1  UNL1        0.0815
     11 C          65.0300   91.9159   14.3761 C.ar    1  UNL1        0.2646
     12 O          65.3326   92.1147   15.8317 O.2     1  UNL1       -0.2668
     13 N          64.0316   90.8797   13.9523 N.ar    1  UNL1       -0.2667
     14 C          63.3358   90.0423   14.9841 C.3     1  UNL1        0.1363
     15 C          66.1189   93.3918   10.8567 C.ar    1  UNL1        0.1024
     16 C          67.2585   92.8173   10.0686 C.ar    1  UNL1        0.0414
     17 C          67.9542   93.6547    9.0368 C.ar    1  UNL1        0.1023
     18 N          67.5104   95.0666    8.7930 N.ar    1  UNL1       -0.2224
     19 C          66.3707   95.6412    9.5812 C.ar    1  UNL1        0.1989
     20 N          65.6750   94.8038   10.6130 N.ar    1  UNL1       -0.2224
     21 C          63.0642   83.4392   12.5173 C.ar    1  UNL1        0.1385
     22 C          63.3913   82.8623   11.1719 C.ar    1  UNL1        0.0369
     23 C          63.3036   83.7219    9.9458 C.ar    1  UNL1        0.0029
     24 C          62.8889   85.1585   10.0651 C.ar    1  UNL1       -0.0017
     25 C          62.5618   85.7354   11.4105 C.ar    1  UNL1        0.0092
     26 C          62.6495   84.8758   12.6366 C.ar    1  UNL1        0.0350
     27 C          61.9558   81.7967   14.1976 C.3     1  UNL1        0.2525
     28 O          63.1519   82.5796   13.7434 O.3     1  UNL1       -0.4714
@<TRIPOS>BOND
     1    27    28    1
     2    28    21    1
     3    21    22   ar
     4    22    23   ar
     5    23    24   ar
     6    24    25   ar
     7     1    25    1
     8     1     2    1
     9     2     3    1
    10     3     7    1
    11     7     8   ar
    12     8     9   ar
    13     9    15    1
    14    15    16   ar
    15    16    17   ar
    16    17    18   ar
    17    18    19   ar
    18    19    20   ar
    19     9    10   ar
    20    10    11   ar
    21    11    12    2
    22    11    13   ar
    23    13    14    1
    24     3     4    1
    25     4     5    1
    26     5     6    1
    27    25    26   ar
    28    26    21   ar
    29     6     1    1
    30    13     7   ar
    31    20    15   ar
@<TRIPOS>MOLECULE
*****
 28 31 0 0 0
SMALL
GASTEIGER

@<TRIPOS>ATOM
      1 C          65.1623   92.0616   12.0535 C.3     1  UNL1        0.1573
      2 C          64.3800   90.8968   11.5235 C.3     1  UNL1        0.1276
      3 N          63.5564   90.0595   12.4567 N.pl3   1  UNL1       -0.2740
      4 C          63.5153   90.3871   13.9199 C.3     1  UNL1        0.1257
      5 C          64.2978   91.5520   14.4499 C.3     1  UNL1        0.1640
      6 O          65.1212   92.3893   13.5167 O.3     1  UNL1       -0.3483
      7 C          62.7741   88.8946   11.9266 C.ar    1  UNL1        0.2036
      8 N          63.1069   87.5019   12.3735 N.ar    1  UNL1       -0.2133
      9 C          62.3246   86.3371   11.8435 C.ar    1  UNL1        0.1065
     10 C          61.2093   86.5649   10.8665 C.ar    1  UNL1        0.0815
     11 C          60.8764   87.9575   10.4197 C.ar    1  UNL1        0.2646
     12 O          59.7612   88.1853    9.4428 O.2     1  UNL1       -0.2668
     13 N          61.6589   89.1224   10.9498 N.ar    1  UNL1       -0.2667
     14 C          61.3260   90.5151   10.5029 C.3     1  UNL1        0.1363
     15 C          62.6574   84.9444   12.2904 C.ar    1  UNL1        0.1024
     16 C          63.1195   83.9262   11.2905 C.ar    1  UNL1        0.0414
     17 C          63.4523   82.5336   11.7374 C.ar    1  UNL1        0.1023
     18 N          63.3231   82.1591   13.1841 N.ar    1  UNL1       -0.2224
     19 C          62.8610   83.1773   14.1840 C.ar    1  UNL1        0.1989
     20 N          62.5282   84.5700   13.7372 N.ar    1  UNL1       -0.2224
     21 C          66.4046   95.1505    9.8934 C.ar    1  UNL1        0.1385
     22 C          67.6327   94.5736    9.2540 C.ar    1  UNL1        0.0369
     23 C          68.0374   93.1594    9.5478 C.ar    1  UNL1        0.0029
     24 C          67.2140   92.3221   10.4809 C.ar    1  UNL1       -0.0017
     25 C          65.9858   92.8990   11.1203 C.ar    1  UNL1        0.0092
     26 C          65.5812   94.3132   10.8265 C.ar    1  UNL1        0.0350
     27 C          64.6401   96.8541    9.0366 C.3     1  UNL1        0.2525
     28 O          65.9999   96.5646    9.5996 O.3     1  UNL1       -0.4714
@<TRIPOS>BOND
     1    27    28    1
     2    28    21    1
     3    21    22   ar
     4    22    23   ar
     5    23    24   ar
     6    24    25   ar
     7     1    25    1
     8     1     2    1
     9     2     3    1
    10     3     7    1
    11     7     8   ar
    12     8     9   ar
    13     9    15    1
    14    15    16   ar
    15    16    17   ar
    16    17    18   ar
    17    18    19   ar
    18    19    20   ar
    19     9    10   ar
    20    10    11   ar
    21    11    12    2
    22    11    13   ar
    23    13    14    1
    24     3     4    1
    25     4     5    1
    26     5     6    1
    27    25    26   ar
    28    26    21   ar
    29     6     1    1
    30    13     7   ar
    31    20    15   ar
@<TRIPOS>MOLECULE
*****
 28 31 0 0 0
SMALL
GASTEIGER

@<TRIPOS>ATOM
      1 C          62.9542   87.4822   12.5477 C.3     1  UNL1        0.1573
      2 C          63.8607   88.6088   12.9464 C.3     1  UNL1        0.1276
      3 N          63.5285   90.0161   12.5471 N.pl3   1  UNL1       -0.2740
      4 C          62.2899   90.2966   11.7489 C.3     1  UNL1        0.1257
      5 C          61.3834   89.1699   11.3501 C.3     1  UNL1        0.1640
      6 O          61.7156   87.7628   11.7495 O.3     1  UNL1       -0.3483
      7 C          64.4350   91.1426   12.9459 C.ar    1  UNL1        0.2036
      8 N          64.9921   92.0630   11.9006 N.ar    1  UNL1       -0.2133
      9 C          65.8986   93.1896   12.2993 C.ar    1  UNL1        0.1065
     10 C          66.2479   93.3959   13.7435 C.ar    1  UNL1        0.0815
     11 C          65.6908   92.4756   14.7888 C.ar    1  UNL1        0.2646
     12 O          66.0401   92.6818   16.2328 O.2     1  UNL1       -0.2668
     13 N          64.7843   91.3489   14.3899 N.ar    1  UNL1       -0.2667
     14 C          64.2272   90.4286   15.4352 C.3     1  UNL1        0.1363
     15 C          66.4557   94.1099   11.2541 C.ar    1  UNL1        0.1024
     16 C          66.1174   95.5709   11.2838 C.ar    1  UNL1        0.0414
     17 C          66.6746   96.4912   10.2386 C.ar    1  UNL1        0.1023
     18 N          67.5700   95.9505    9.1635 N.ar    1  UNL1       -0.2224
     19 C          67.9083   94.4894    9.1337 C.ar    1  UNL1        0.1989
     20 N          67.3512   93.5691   10.1790 N.ar    1  UNL1       -0.2224
     21 C          63.1294   83.5176   12.5170 C.ar    1  UNL1        0.1385
     22 C          63.9506   83.2606   13.7456 C.ar    1  UNL1        0.0369
     23 C          64.4397   84.4109   14.5749 C.ar    1  UNL1        0.0029
     24 C          64.1076   85.8180   14.1756 C.ar    1  UNL1       -0.0017
     25 C          63.2864   86.0750   12.9470 C.ar    1  UNL1        0.0092
     26 C          62.7973   84.9248   12.1177 C.ar    1  UNL1        0.0350
     27 C          63.5057   81.8067   10.5984 C.3     1  UNL1        0.2525
     28 O          62.6403   82.3673   11.6877 O.3     1  UNL1       -0.4714
@<TRIPOS>BOND
     1    27    28    1
     2    28    21    1
     3    21    22   ar
     4    22    23   ar
     5    23    24   ar
     6    24    25   ar
     7     1    25    1
     8     1     2    1
     9     2     3    1
    10     3     7    1
    11     7     8   ar
    12     8     9   ar
    13     9    15    1
    14    15    16   ar
    15    16    17   ar
    16    17    18   ar
    17    18    19   ar
    18    19    20   ar
    19     9    10   ar
    20    10    11   ar
    21    11    12    2
    22    11    13   ar
    23    13    14    1
    24     3     4    1
    25     4     5    1
    26     5     6    1
    27    25    26   ar
    28    26    21   ar
    29     6     1    1
    30    13     7   ar
    31    20    15   ar
@<TRIPOS>MOLECULE
*****
 28 31 0 0 0
SMALL
GASTEIGER

@<TRIPOS>ATOM
      1 C          62.0928   87.7655   11.2220 C.3     1  UNL1        0.1573
      2 C          63.1739   88.7127   11.6509 C.3     1  UNL1        0.1276
      3 N          62.8160   90.0738   12.1699 N.pl3   1  UNL1       -0.2740
      4 C          61.3770   90.4877   12.2599 C.3     1  UNL1        0.1257
      5 C          60.2959   89.5403   11.8310 C.3     1  UNL1        0.1640
      6 O          60.6539   88.1793   11.3120 O.3     1  UNL1       -0.3483
      7 C          63.8970   91.0211   12.5989 C.ar    1  UNL1        0.2036
      8 N          64.5542   91.9157   11.5900 N.ar    1  UNL1       -0.2133
      9 C          65.6352   92.8629   12.0189 C.ar    1  UNL1        0.1065
     10 C          66.0592   92.9156   13.4568 C.ar    1  UNL1        0.0815
     11 C          65.4020   92.0210   14.4657 C.ar    1  UNL1        0.2646
     12 O          65.8259   92.0737   15.9036 O.2     1  UNL1       -0.2668
     13 N          64.3209   91.0737   14.0367 N.ar    1  UNL1       -0.2667
     14 C          63.6638   90.1792   15.0456 C.3     1  UNL1        0.1363
     15 C          66.2924   93.7575   11.0100 C.ar    1  UNL1        0.1024
     16 C          65.8192   95.1706   10.8397 C.ar    1  UNL1        0.0414
     17 C          66.4763   96.0652    9.8308 C.ar    1  UNL1        0.1023
     18 N          67.6066   95.5466    8.9922 N.ar    1  UNL1       -0.2224
     19 C          68.0799   94.1334    9.1624 C.ar    1  UNL1        0.1989
     20 N          67.4227   93.2388   10.1713 N.ar    1  UNL1       -0.2224
     21 C          62.8759   84.7981    8.7057 C.ar    1  UNL1        0.1385
     22 C          63.1665   83.6822    9.6650 C.ar    1  UNL1        0.0369
     23 C          63.0992   83.9274   11.1433 C.ar    1  UNL1        0.0029
     24 C          62.7413   85.2884   11.6623 C.ar    1  UNL1       -0.0017
     25 C          62.4507   86.4043   10.7030 C.ar    1  UNL1        0.0092
     26 C          62.5181   86.1592    9.2247 C.ar    1  UNL1        0.0350
     27 C          61.7106   84.7011    6.3857 C.3     1  UNL1        0.2525
     28 O          62.9433   84.5530    7.2274 O.3     1  UNL1       -0.4714
@<TRIPOS>BOND
     1    27    28    1
     2    28    21    1
     3    21    22   ar
     4    22    23   ar
     5    23    24   ar
     6    24    25   ar
     7     1    25    1
     8     1     2    1
     9     2     3    1
    10     3     7    1
    11     7     8   ar
    12     8     9   ar
    13     9    15    1
    14    15    16   ar
    15    16    17   ar
    16    17    18   ar
    17    18    19   ar
    18    19    20   ar
    19     9    10   ar
    20    10    11   ar
    21    11    12    2
    22    11    13   ar
    23    13    14    1
    24     3     4    1
    25     4     5    1
    26     5     6    1
    27    25    26   ar
    28    26    21   ar
    29     6     1    1
    30    13     7   ar
    31    20    15   ar
@<TRIPOS>MOLECULE
*****
 28 31 0 0 0
SMALL
GASTEIGER

@<TRIPOS>ATOM
      1 C          62.7518   84.1133   10.9498 C.3     1  UNL1        0.1573
      2 C          62.4248   85.4900   11.4474 C.3     1  UNL1        0.1276
      3 N          62.4514   86.6550   10.5028 N.pl3   1  UNL1       -0.2740
      4 C          62.8049   86.4432    9.0606 C.3     1  UNL1        0.1257
      5 C          63.1320   85.0664    8.5629 C.3     1  UNL1        0.1640
      6 O          63.1054   83.9015    9.5075 O.3     1  UNL1       -0.3483
      7 C          62.1244   88.0317   11.0005 C.ar    1  UNL1        0.2036
      8 N          63.0430   88.7174   11.9679 N.ar    1  UNL1       -0.2133
      9 C          62.7160   90.0941   12.4656 C.ar    1  UNL1        0.1065
     10 C          61.4703   90.7852   11.9959 C.ar    1  UNL1        0.0815
     11 C          60.5516   90.0995   11.0284 C.ar    1  UNL1        0.2646
     12 O          59.3059   90.7905   10.5587 O.2     1  UNL1       -0.2668
     13 N          60.8787   88.7227   10.5308 N.ar    1  UNL1       -0.2667
     14 C          59.9600   88.0371    9.5633 C.3     1  UNL1        0.1363
     15 C          63.6347   90.7797   13.4330 C.ar    1  UNL1        0.1024
     16 C          64.8404   91.5162   12.9290 C.ar    1  UNL1        0.0414
     17 C          65.7590   92.2018   13.8965 C.ar    1  UNL1        0.1023
     18 N          65.4721   92.1511   15.3678 N.ar    1  UNL1       -0.2224
     19 C          64.2664   91.4146   15.8719 C.ar    1  UNL1        0.1989
     20 N          63.3477   90.7290   14.9045 N.ar    1  UNL1       -0.2224
     21 C          62.7108   80.3826   12.3026 C.ar    1  UNL1        0.1385
     22 C          62.6722   80.6185   13.7834 C.ar    1  UNL1        0.0369
     23 C          62.6601   82.0193   14.3197 C.ar    1  UNL1        0.0029
     24 C          62.6867   83.1842   13.3752 C.ar    1  UNL1       -0.0017
     25 C          62.7253   82.9484   11.8944 C.ar    1  UNL1        0.0092
     26 C          62.7373   81.5476   11.3581 C.ar    1  UNL1        0.0350
     27 C          62.7760   78.7459   10.2860 C.3     1  UNL1        0.2525
     28 O          62.7228   78.9818   11.7663 O.3     1  UNL1       -0.4714
@<TRIPOS>BOND
     1    27    28    1
     2    28    21    1
     3    21    22   ar
     4    22    23   ar
     5    23    24   ar
     6    24    25   ar
     7     1    25    1
     8     1     2    1
     9     2     3    1
    10     3     7    1
    11     7     8   ar
    12     8     9   ar
    13     9    15    1
    14    15    16   ar
    15    16    17   ar
    16    17    18   ar
    17    18    19   ar
    18    19    20   ar
    19     9    10   ar
    20    10    11   ar
    21    11    12    2
    22    11    13   ar
    23    13    14    1
    24     3     4    1
    25     4     5    1
    26     5     6    1
    27    25    26   ar
    28    26    21   ar
    29     6     1    1
    30    13     7   ar
    31    20    15   ar
@<TRIPOS>MOLECULE
*****
 28 31 0 0 0
SMALL
GASTEIGER

@<TRIPOS>ATOM
      1 C          62.1567   87.6710   11.1387 C.3     1  UNL1        0.1573
      2 C          62.7976   88.9550   11.5753 C.3     1  UNL1        0.1276
      3 N          63.6693   88.9811   12.7958 N.pl3   1  UNL1       -0.2740
      4 C          63.9002   87.7232   13.5796 C.3     1  UNL1        0.1257
      5 C          63.2593   86.4392   13.1429 C.3     1  UNL1        0.1640
      6 O          62.3876   86.4131   11.9225 O.3     1  UNL1       -0.3483
      7 C          64.3102   90.2651   13.2323 C.ar    1  UNL1        0.2036
      8 N          64.9817   91.1491   12.2236 N.ar    1  UNL1       -0.2133
      9 C          65.6225   92.4331   12.6601 C.ar    1  UNL1        0.1065
     10 C          65.5919   92.8331   14.1056 C.ar    1  UNL1        0.0815
     11 C          64.9204   91.9491   15.1143 C.ar    1  UNL1        0.2646
     12 O          64.8898   92.3491   16.5597 O.2     1  UNL1       -0.2668
     13 N          64.2796   90.6651   14.6777 N.ar    1  UNL1       -0.2667
     14 C          63.6081   89.7810   15.6864 C.3     1  UNL1        0.1363
     15 C          66.2940   93.3172   11.6514 C.ar    1  UNL1        0.1024
     16 C          67.1249   92.7121   10.5590 C.ar    1  UNL1        0.0414
     17 C          67.7964   93.5961    9.5502 C.ar    1  UNL1        0.1023
     18 N          67.6369   95.0852    9.6339 N.ar    1  UNL1       -0.2224
     19 C          66.8060   95.6904   10.7263 C.ar    1  UNL1        0.1989
     20 N          66.1345   94.8064   11.7351 N.ar    1  UNL1       -0.2224
     21 C          60.3166   86.3704    7.8719 C.ar    1  UNL1        0.1385
     22 C          59.5415   87.5926    7.4775 C.ar    1  UNL1        0.0369
     23 C          59.6381   88.8409    8.3036 C.ar    1  UNL1        0.0029
     24 C          60.5098   88.8671    9.5240 C.ar    1  UNL1       -0.0017
     25 C          61.2849   87.6449    9.9183 C.ar    1  UNL1        0.0092
     26 C          61.1883   86.3966    9.0922 C.ar    1  UNL1        0.0350
     27 C          61.4481   84.5543    6.3983 C.3     1  UNL1        0.2525
     28 O          60.2200   85.1221    7.0458 O.3     1  UNL1       -0.4714
@<TRIPOS>BOND
     1    27    28    1
     2    28    21    1
     3    21    22   ar
     4    22    23   ar
     5    23    24   ar
     6    24    25   ar
     7     1    25    1
     8     1     2    1
     9     2     3    1
    10     3     7    1
    11     7     8   ar
    12     8     9   ar
    13     9    15    1
    14    15    16   ar
    15    16    17   ar
    16    17    18   ar
    17    18    19   ar
    18    19    20   ar
    19     9    10   ar
    20    10    11   ar
    21    11    12    2
    22    11    13   ar
    23    13    14    1
    24     3     4    1
    25     4     5    1
    26     5     6    1
    27    25    26   ar
    28    26    21   ar
    29     6     1    1
    30    13     7   ar
    31    20    15   ar
@<TRIPOS>MOLECULE
*****
 28 31 0 0 0
SMALL
GASTEIGER

@<TRIPOS>ATOM
      1 C          63.0843   84.7043   10.8753 C.3     1  UNL1        0.1573
      2 C          62.9455   85.6111   12.0620 C.3     1  UNL1        0.1276
      3 N          63.6393   85.2741   13.3486 N.pl3   1  UNL1       -0.2740
      4 C          64.4717   84.0302   13.4484 C.3     1  UNL1        0.1257
      5 C          64.6104   83.1234   12.2616 C.3     1  UNL1        0.1640
      6 O          63.9167   83.4604   10.9751 O.3     1  UNL1       -0.3483
      7 C          63.5006   86.1809   14.5354 C.ar    1  UNL1        0.2036
      8 N          63.9724   87.6023   14.4524 N.ar    1  UNL1       -0.2133
      9 C          63.8337   88.5091   15.6391 C.ar    1  UNL1        0.1065
     10 C          63.2231   87.9945   16.9090 C.ar    1  UNL1        0.0815
     11 C          62.7513   86.5731   16.9920 C.ar    1  UNL1        0.2646
     12 O          62.1408   86.0584   18.2618 O.2     1  UNL1       -0.2668
     13 N          62.8900   85.6662   15.8052 N.ar    1  UNL1       -0.2667
     14 C          62.4182   84.2448   15.8882 C.3     1  UNL1        0.1363
     15 C          64.3055   89.9306   15.5561 C.ar    1  UNL1        0.1024
     16 C          65.2405   90.3477   14.4598 C.ar    1  UNL1        0.0414
     17 C          65.7123   91.7691   14.3768 C.ar    1  UNL1        0.1023
     18 N          65.2491   92.7735   15.3900 N.ar    1  UNL1       -0.2224
     19 C          64.3140   92.3564   16.4864 C.ar    1  UNL1        0.1989
     20 N          63.8422   90.9350   16.5694 N.ar    1  UNL1       -0.2224
     21 C          60.4458   86.2057    8.3191 C.ar    1  UNL1        0.1385
     22 C          61.0031   85.7153    7.0157 C.ar    1  UNL1        0.0369
     23 C          62.2541   84.8879    6.9988 C.ar    1  UNL1        0.0029
     24 C          62.9478   84.5509    8.2853 C.ar    1  UNL1       -0.0017
     25 C          62.3905   85.0413    9.5887 C.ar    1  UNL1        0.0092
     26 C          61.1395   85.8687    9.6056 C.ar    1  UNL1        0.0350
     27 C          59.1610   88.3562    7.6301 C.3     1  UNL1        0.2525
     28 O          59.1947   87.0332    8.3360 O.3     1  UNL1       -0.4714
@<TRIPOS>BOND
     1    27    28    1
     2    28    21    1
     3    21    22   ar
     4    22    23   ar
     5    23    24   ar
     6    24    25   ar
     7     1    25    1
     8     1     2    1
     9     2     3    1
    10     3     7    1
    11     7     8   ar
    12     8     9   ar
    13     9    15    1
    14    15    16   ar
    15    16    17   ar
    16    17    18   ar
    17    18    19   ar
    18    19    20   ar
    19     9    10   ar
    20    10    11   ar
    21    11    12    2
    22    11    13   ar
    23    13    14    1
    24     3     4    1
    25     4     5    1
    26     5     6    1
    27    25    26   ar
    28    26    21   ar
    29     6     1    1
    30    13     7   ar
    31    20    15   ar
@<TRIPOS>MOLECULE
*****
 28 31 0 0 0
SMALL
GASTEIGER

@<TRIPOS>ATOM
      1 C          62.7448   84.4778   10.7453 C.3     1  UNL1        0.1573
      2 C          62.4946   85.8912   11.1809 C.3     1  UNL1        0.1276
      3 N          62.4076   86.9865   10.1597 N.pl3   1  UNL1       -0.2740
      4 C          62.5709   86.6683    8.7029 C.3     1  UNL1        0.1257
      5 C          62.8212   85.2549    8.2674 C.3     1  UNL1        0.1640
      6 O          62.9081   84.1597    9.2886 O.3     1  UNL1       -0.3483
      7 C          62.1573   88.3998   10.5952 C.ar    1  UNL1        0.2036
      8 N          63.3076   89.2779   10.9898 N.ar    1  UNL1       -0.2133
      9 C          63.0574   90.6912   11.4254 C.ar    1  UNL1        0.1065
     10 C          61.6567   91.2266   11.4663 C.ar    1  UNL1        0.0815
     11 C          60.5064   90.3485   11.0717 C.ar    1  UNL1        0.2646
     12 O          59.1058   90.8838   11.1127 O.2     1  UNL1       -0.2668
     13 N          60.7567   88.9351   10.6362 N.ar    1  UNL1       -0.2667
     14 C          59.6064   88.0570   10.2415 C.3     1  UNL1        0.1363
     15 C          64.2077   91.5693   11.8200 C.ar    1  UNL1        0.1024
     16 C          64.9324   92.3693   10.7785 C.ar    1  UNL1        0.0414
     17 C          66.0827   93.2473   11.1731 C.ar    1  UNL1        0.1023
     18 N          66.5084   93.3254   12.6093 N.ar    1  UNL1       -0.2224
     19 C          65.7837   92.5255   13.6509 C.ar    1  UNL1        0.1989
     20 N          64.6334   91.6474   13.2563 N.ar    1  UNL1       -0.2224
     21 C          62.8871   82.6209   14.2498 C.ar    1  UNL1        0.1385
     22 C          63.0058   81.1921   13.8089 C.ar    1  UNL1        0.0369
     23 C          63.0375   80.8585   12.3468 C.ar    1  UNL1        0.0029
     24 C          62.9505   81.9537   11.3257 C.ar    1  UNL1       -0.0017
     25 C          62.8318   83.3825   11.7665 C.ar    1  UNL1        0.0092
     26 C          62.8001   83.7161   13.2286 C.ar    1  UNL1        0.0350
     27 C          62.6172   84.3679   16.1537 C.3     1  UNL1        0.2525
     28 O          62.8554   82.9544   15.7119 O.3     1  UNL1       -0.4714
@<TRIPOS>BOND
     1    27    28    1
     2    28    21    1
     3    21    22   ar
     4    22    23   ar
     5    23    24   ar
     6    24    25   ar
     7     1    25    1
     8     1     2    1
     9     2     3    1
    10     3     7    1
    11     7     8   ar
    12     8     9   ar
    13     9    15    1
    14    15    16   ar
    15    16    17   ar
    16    17    18   ar
    17    18    19   ar
    18    19    20   ar
    19     9    10   ar
    20    10    11   ar
    21    11    12    2
    22    11    13   ar
    23    13    14    1
    24     3     4    1
    25     4     5    1
    26     5     6    1
    27    25    26   ar
    28    26    21   ar
    29     6     1    1
    30    13     7   ar
    31    20    15   ar
@<TRIPOS>MOLECULE
*****
 28 31 0 0 0
SMALL
GASTEIGER

@<TRIPOS>ATOM
      1 C          64.4927   91.4224   12.6491 C.3     1  UNL1        0.1573
      2 C          63.8844   90.0568   12.5269 C.3     1  UNL1        0.1276
      3 N          63.1473   89.6730   11.2781 N.pl3   1  UNL1       -0.2740
      4 C          63.0185   90.6549   10.1515 C.3     1  UNL1        0.1257
      5 C          63.6269   92.0206   10.2737 C.3     1  UNL1        0.1640
      6 O          64.3640   92.4043   11.5224 O.3     1  UNL1       -0.3483
      7 C          62.5389   88.3074   11.1560 C.ar    1  UNL1        0.2036
      8 N          62.9879   87.2022   12.0654 N.ar    1  UNL1       -0.2133
      9 C          62.3796   85.8366   11.9433 C.ar    1  UNL1        0.1065
     10 C          61.3222   85.5761   10.9117 C.ar    1  UNL1        0.0815
     11 C          60.8732   86.6812   10.0023 C.ar    1  UNL1        0.2646
     12 O          59.8158   86.4208    8.9707 O.2     1  UNL1       -0.2668
     13 N          61.4816   88.0469   10.1244 N.ar    1  UNL1       -0.2667
     14 C          61.0326   89.1521    9.2150 C.3     1  UNL1        0.1363
     15 C          62.8286   84.7315   12.8527 C.ar    1  UNL1        0.1024
     16 C          63.5286   83.5318   12.2863 C.ar    1  UNL1        0.0414
     17 C          63.9775   82.4267   13.1957 C.ar    1  UNL1        0.1023
     18 N          63.7265   82.5211   14.6715 N.ar    1  UNL1       -0.2224
     19 C          63.0265   83.7208   15.2380 C.ar    1  UNL1        0.1989
     20 N          62.5775   84.8260   14.3286 N.ar    1  UNL1       -0.2224
     21 C          67.3895   92.6584   15.0638 C.ar    1  UNL1        0.1385
     22 C          66.7040   92.5737   16.3953 C.ar    1  UNL1        0.0369
     23 C          65.2815   92.1052   16.4781 C.ar    1  UNL1        0.0029
     24 C          64.5444   91.7214   15.2294 C.ar    1  UNL1       -0.0017
     25 C          65.2298   91.8062   13.8979 C.ar    1  UNL1        0.0092
     26 C          66.6524   92.2746   13.8151 C.ar    1  UNL1        0.0350
     27 C          69.3129   94.1752   15.9299 C.3     1  UNL1        0.2525
     28 O          68.8120   93.1269   14.9811 O.3     1  UNL1       -0.4714
@<TRIPOS>BOND
     1    27    28    1
     2    28    21    1
     3    21    22   ar
     4    22    23   ar
     5    23    24   ar
     6    24    25   ar
     7     1    25    1
     8     1     2    1
     9     2     3    1
    10     3     7    1
    11     7     8   ar
    12     8     9   ar
    13     9    15    1
    14    15    16   ar
    15    16    17   ar
    16    17    18   ar
    17    18    19   ar
    18    19    20   ar
    19     9    10   ar
    20    10    11   ar
    21    11    12    2
    22    11    13   ar
    23    13    14    1
    24     3     4    1
    25     4     5    1
    26     5     6    1
    27    25    26   ar
    28    26    21   ar
    29     6     1    1
    30    13     7   ar
    31    20    15   ar
