@<TRIPOS>MOLECULE
*****
 26 28 0 0 0
SMALL
GASTEIGER

@<TRIPOS>ATOM
      1 C          66.1605   92.9576   13.1062 C.ar    1  UNL1        0.1724
      2 C          65.4422   91.7629   13.6599 C.ar    1  UNL1        0.0400
      3 C          64.5041   90.9815   12.7884 C.ar    1  UNL1        0.0032
      4 C          63.7857   89.7868   13.3421 C.ar    1  UNL1       -0.0001
      5 C          62.8476   89.0054   12.4707 C.ar    1  UNL1       -0.0017
      6 C          62.6279   89.4187   11.0456 C.ar    1  UNL1        0.0070
      7 C          63.3462   90.6135   10.4919 C.ar    1  UNL1       -0.0016
      8 C          64.2843   91.3948   11.3634 C.ar    1  UNL1        0.0030
      9 C          65.0027   92.5896   10.8097 C.ar    1  UNL1        0.0400
     10 C          65.9408   93.3710   11.6811 C.ar    1  UNL1        0.1724
     11 C          61.6897   88.6373   10.1742 C.3     1  UNL1        0.1410
     12 O          62.8540   88.1280    9.3774 O.3     1  UNL1       -0.3771
     13 H          63.6770   88.4946    9.7369 H       1  UNL1        0.2112
     14 C          60.5254   89.1466   10.9710 C.ar    1  UNL1        0.0825
     15 C          59.9871   90.5465   10.9493 C.ar    1  UNL1        0.1157
     16 N          58.8239   90.6106   11.8944 N.ar    1  UNL1       -0.2228
     17 C          58.6434   89.2502   12.5001 C.ar    1  UNL1        0.1749
     18 N          59.6950   88.3454   11.9295 N.ar    1  UNL1       -0.3361
     19 H          59.8185   87.3930   12.1460 H       1  UNL1        0.1673
     20 C          60.7516   87.8559    9.3028 C.3     1  UNL1        0.0340
     21 C          59.8431   88.5719    8.3478 C.3     1  UNL1        0.0031
     22 C          60.7219   86.3585    9.3865 C.3     1  UNL1        0.0031
     23 C          67.4113   93.2580   15.3635 C.3     1  UNL1        0.2526
     24 O          67.0987   93.7391   13.9776 O.3     1  UNL1       -0.4684
     25 O          66.6592   94.5658   11.1275 O.3     1  UNL1       -0.4684
     26 C          66.0850   95.9389   11.3137 C.3     1  UNL1        0.2526
@<TRIPOS>BOND
     1    23    24    1
     2    24     1    1
     3     1     2   ar
     4     2     3   ar
     5     3     4   ar
     6     4     5   ar
     7     5     6   ar
     8     6    11    1
     9    11    12    1
    10    11    14    1
    11    14    15   ar
    12    15    16   ar
    13    16    17   ar
    14    17    18   ar
    15    11    20    1
    16    20    21    1
    17    20    22    1
    18     6     7   ar
    19     7     8   ar
    20     8     9   ar
    21     9    10   ar
    22    10    25    1
    23    25    26    1
    24    10     1   ar
    25     8     3   ar
    26    18    14   ar
    27    12    13    1
    28    18    19    1
@<TRIPOS>MOLECULE
*****
 26 28 0 0 0
SMALL
GASTEIGER

@<TRIPOS>ATOM
      1 C          63.8982   89.5530   13.1098 C.ar    1  UNL1        0.1724
      2 C          64.3530   88.6315   14.2024 C.ar    1  UNL1        0.0400
      3 C          63.9856   87.1778   14.1590 C.ar    1  UNL1        0.0032
      4 C          64.4403   86.2562   15.2516 C.ar    1  UNL1       -0.0001
      5 C          64.0729   84.8026   15.2081 C.ar    1  UNL1       -0.0017
      6 C          63.2507   84.2705   14.0719 C.ar    1  UNL1        0.0070
      7 C          62.7960   85.1921   12.9793 C.ar    1  UNL1       -0.0016
      8 C          63.1634   86.6457   13.0228 C.ar    1  UNL1        0.0030
      9 C          62.7086   87.5673   11.9301 C.ar    1  UNL1        0.0400
     10 C          63.0760   89.0209   11.9736 C.ar    1  UNL1        0.1724
     11 C          62.8833   82.8168   14.0284 C.3     1  UNL1        0.1410
     12 O          62.3520   82.9092   15.4281 O.3     1  UNL1       -0.3771
     13 H          62.4615   83.8154   15.7564 H       1  UNL1        0.2112
     14 C          63.4146   82.7245   12.6287 C.ar    1  UNL1        0.0825
     15 C          64.8211   83.0187   12.1983 C.ar    1  UNL1        0.1157
     16 N          64.9084   82.7977   10.7171 N.ar    1  UNL1       -0.2228
     17 C          63.5558   82.3669   10.2322 C.ar    1  UNL1        0.1749
     18 N          62.6326   82.3217   11.4136 N.ar    1  UNL1       -0.3361
     19 H          61.6806   82.0715   11.3948 H       1  UNL1        0.1673
     20 C          62.5159   81.3632   13.9849 C.3     1  UNL1        0.0340
     21 C          61.0783   80.9494   14.0937 C.3     1  UNL1        0.0031
     22 C          63.5862   80.3233   13.8325 C.3     1  UNL1        0.0031
     23 C          65.4892   91.4491   13.8998 C.3     1  UNL1        0.2526
     24 O          64.2656   91.0067   13.1533 O.3     1  UNL1       -0.4684
     25 O          62.6212   89.9426   10.8810 O.3     1  UNL1       -0.4684
     26 C          61.1997   90.4200   10.8457 C.3     1  UNL1        0.2526
@<TRIPOS>BOND
     1    23    24    1
     2    24     1    1
     3     1     2   ar
     4     2     3   ar
     5     3     4   ar
     6     4     5   ar
     7     5     6   ar
     8     6    11    1
     9    11    12    1
    10    11    14    1
    11    14    15   ar
    12    15    16   ar
    13    16    17   ar
    14    17    18   ar
    15    11    20    1
    16    20    21    1
    17    20    22    1
    18     6     7   ar
    19     7     8   ar
    20     8     9   ar
    21     9    10   ar
    22    10    25    1
    23    25    26    1
    24    10     1   ar
    25     8     3   ar
    26    18    14   ar
    27    12    13    1
    28    18    19    1
@<TRIPOS>MOLECULE
*****
 26 28 0 0 0
SMALL
GASTEIGER

@<TRIPOS>ATOM
      1 C          63.8180   90.1289   12.7754 C.ar    1  UNL1        0.1724
      2 C          63.1082   89.1355   11.9041 C.ar    1  UNL1        0.0400
      3 C          63.0235   87.6972   12.3216 C.ar    1  UNL1        0.0032
      4 C          62.3136   86.7038   11.4503 C.ar    1  UNL1       -0.0001
      5 C          62.2290   85.2657   11.8678 C.ar    1  UNL1       -0.0017
      6 C          62.8543   84.8208   13.1567 C.ar    1  UNL1        0.0070
      7 C          63.5641   85.8142   14.0280 C.ar    1  UNL1       -0.0016
      8 C          63.6488   87.2524   13.6105 C.ar    1  UNL1        0.0030
      9 C          64.3587   88.2458   14.4818 C.ar    1  UNL1        0.0400
     10 C          64.4433   89.6840   14.0643 C.ar    1  UNL1        0.1724
     11 C          62.7696   83.3825   13.5742 C.3     1  UNL1        0.1410
     12 O          62.1807   83.7989   14.8894 O.3     1  UNL1       -0.3771
     13 H          62.1054   84.7656   14.9184 H       1  UNL1        0.2112
     14 C          63.3585   82.9661   12.2590 C.ar    1  UNL1        0.0825
     15 C          64.6861   83.3987   11.7110 C.ar    1  UNL1        0.1157
     16 N          64.8713   82.7439   10.3741 N.ar    1  UNL1       -0.2228
     17 C          63.6582   81.9066   10.0960 C.ar    1  UNL1        0.1749
     18 N          62.7232   82.0440   11.2609 N.ar    1  UNL1       -0.3361
     19 H          61.8465   81.6058   11.3541 H       1  UNL1        0.1673
     20 C          62.6850   81.9443   13.9917 C.3     1  UNL1        0.0340
     21 C          63.9372   81.1326   14.1440 C.3     1  UNL1        0.0031
     22 C          61.3481   81.3177   14.2569 C.3     1  UNL1        0.0031
     23 C          64.6146   91.9398   11.0913 C.3     1  UNL1        0.2526
     24 O          63.9027   91.5671   12.3579 O.3     1  UNL1       -0.4684
     25 O          65.1532   90.6775   14.9356 O.3     1  UNL1       -0.4684
     26 C          66.4657   91.2564   14.4973 C.3     1  UNL1        0.2526
@<TRIPOS>BOND
     1    23    24    1
     2    24     1    1
     3     1     2   ar
     4     2     3   ar
     5     3     4   ar
     6     4     5   ar
     7     5     6   ar
     8     6    11    1
     9    11    12    1
    10    11    14    1
    11    14    15   ar
    12    15    16   ar
    13    16    17   ar
    14    17    18   ar
    15    11    20    1
    16    20    21    1
    17    20    22    1
    18     6     7   ar
    19     7     8   ar
    20     8     9   ar
    21     9    10   ar
    22    10    25    1
    23    25    26    1
    24    10     1   ar
    25     8     3   ar
    26    18    14   ar
    27    12    13    1
    28    18    19    1
@<TRIPOS>MOLECULE
*****
 26 28 0 0 0
SMALL
GASTEIGER

@<TRIPOS>ATOM
      1 C          63.2456   81.9375   11.1881 C.ar    1  UNL1        0.1724
      2 C          63.3277   82.8277    9.9836 C.ar    1  UNL1        0.0400
      3 C          62.9540   84.2762   10.0947 C.ar    1  UNL1        0.0032
      4 C          63.0360   85.1664    8.8903 C.ar    1  UNL1       -0.0001
      5 C          62.6624   86.6148    9.0014 C.ar    1  UNL1       -0.0017
      6 C          62.2067   87.1731   10.3170 C.ar    1  UNL1        0.0070
      7 C          62.1247   86.2829   11.5214 C.ar    1  UNL1       -0.0016
      8 C          62.4983   84.8344   11.4103 C.ar    1  UNL1        0.0030
      9 C          62.4163   83.9441   12.6148 C.ar    1  UNL1        0.0400
     10 C          62.7900   82.4957   12.5037 C.ar    1  UNL1        0.1724
     11 C          61.8331   88.6216   10.4281 C.3     1  UNL1        0.1410
     12 O          62.9099   88.8208   11.4531 O.3     1  UNL1       -0.3771
     13 H          63.3698   87.9806   11.6063 H       1  UNL1        0.2112
     14 C          60.7562   88.4224    9.4030 C.ar    1  UNL1        0.0825
     15 C          59.7527   87.3077    9.3837 C.ar    1  UNL1        0.1157
     16 N          58.8701   87.4993    8.1860 N.ar    1  UNL1       -0.2228
     17 C          59.3282   88.7324    7.4652 C.ar    1  UNL1        0.1749
     18 N          60.4938   89.3029    8.2173 N.ar    1  UNL1       -0.3361
     19 H          60.9981   90.1131    7.9752 H       1  UNL1        0.1673
     20 C          61.4594   90.0700   10.5391 C.3     1  UNL1        0.0340
     21 C          60.0884   90.4570   11.0087 C.3     1  UNL1        0.0031
     22 C          62.4568   91.1315   10.1805 C.3     1  UNL1        0.0031
     23 C          62.9753   79.6263   10.0325 C.3     1  UNL1        0.2526
     24 O          63.6193   80.4890   11.0770 O.3     1  UNL1       -0.4684
     25 O          62.7080   81.6054   13.7081 O.3     1  UNL1       -0.4684
     26 C          61.3805   81.0687   14.1550 C.3     1  UNL1        0.2526
@<TRIPOS>BOND
     1    23    24    1
     2    24     1    1
     3     1     2   ar
     4     2     3   ar
     5     3     4   ar
     6     4     5   ar
     7     5     6   ar
     8     6    11    1
     9    11    12    1
    10    11    14    1
    11    14    15   ar
    12    15    16   ar
    13    16    17   ar
    14    17    18   ar
    15    11    20    1
    16    20    21    1
    17    20    22    1
    18     6     7   ar
    19     7     8   ar
    20     8     9   ar
    21     9    10   ar
    22    10    25    1
    23    25    26    1
    24    10     1   ar
    25     8     3   ar
    26    18    14   ar
    27    12    13    1
    28    18    19    1
@<TRIPOS>MOLECULE
*****
 26 28 0 0 0
SMALL
GASTEIGER

@<TRIPOS>ATOM
      1 C          65.7206   92.7598   13.6926 C.ar    1  UNL1        0.1724
      2 C          65.2863   92.7580   12.2569 C.ar    1  UNL1        0.0400
      3 C          64.3838   91.6735   11.7476 C.ar    1  UNL1        0.0032
      4 C          63.9495   91.6717   10.3119 C.ar    1  UNL1       -0.0001
      5 C          63.0471   90.5872    9.8026 C.ar    1  UNL1       -0.0017
      6 C          62.5790   89.5044   10.7291 C.ar    1  UNL1        0.0070
      7 C          63.0133   89.5061   12.1649 C.ar    1  UNL1       -0.0016
      8 C          63.9157   90.5907   12.6741 C.ar    1  UNL1        0.0030
      9 C          64.3500   90.5924   14.1099 C.ar    1  UNL1        0.0400
     10 C          65.2525   91.6770   14.6191 C.ar    1  UNL1        0.1724
     11 C          61.6765   88.4198   10.2198 C.3     1  UNL1        0.1410
     12 O          62.8190   87.8327    9.4454 O.3     1  UNL1       -0.3771
     13 H          63.6155   88.3674    9.5889 H       1  UNL1        0.2112
     14 C          60.5339   89.0070   10.9943 C.ar    1  UNL1        0.0825
     15 C          59.9605   90.3813   10.8142 C.ar    1  UNL1        0.1157
     16 N          58.8363   90.5466   11.7935 N.ar    1  UNL1       -0.2228
     17 C          58.7149   89.2743   12.5788 C.ar    1  UNL1        0.1749
     18 N          59.7641   88.3228   12.0849 N.ar    1  UNL1       -0.3361
     19 H          59.9200   87.4096   12.4181 H       1  UNL1        0.1673
     20 C          60.7740   87.3354    9.7106 C.3     1  UNL1        0.0340
     21 C          59.6284   87.6768    8.8045 C.3     1  UNL1        0.0031
     22 C          61.0171   85.9093   10.1075 C.3     1  UNL1        0.0031
     23 C          67.8799   93.4894   14.9397 C.3     1  UNL1        0.2526
     24 O          66.6231   93.8443   14.2019 O.3     1  UNL1       -0.4684
     25 O          65.6868   91.6787   16.0549 O.3     1  UNL1       -0.4684
     26 C          64.8718   92.4043   17.0841 C.3     1  UNL1        0.2526
@<TRIPOS>BOND
     1    23    24    1
     2    24     1    1
     3     1     2   ar
     4     2     3   ar
     5     3     4   ar
     6     4     5   ar
     7     5     6   ar
     8     6    11    1
     9    11    12    1
    10    11    14    1
    11    14    15   ar
    12    15    16   ar
    13    16    17   ar
    14    17    18   ar
    15    11    20    1
    16    20    21    1
    17    20    22    1
    18     6     7   ar
    19     7     8   ar
    20     8     9   ar
    21     9    10   ar
    22    10    25    1
    23    25    26    1
    24    10     1   ar
    25     8     3   ar
    26    18    14   ar
    27    12    13    1
    28    18    19    1
@<TRIPOS>MOLECULE
*****
 26 28 0 0 0
SMALL
GASTEIGER

@<TRIPOS>ATOM
      1 C          64.6622   91.3111   14.5747 C.ar    1  UNL1        0.1724
      2 C          64.7049   91.5943   13.1023 C.ar    1  UNL1        0.0400
      3 C          63.7304   90.9226   12.1808 C.ar    1  UNL1        0.0032
      4 C          63.7732   91.2058   10.7084 C.ar    1  UNL1       -0.0001
      5 C          62.7987   90.5341    9.7869 C.ar    1  UNL1       -0.0017
      6 C          61.7815   89.5792   10.3378 C.ar    1  UNL1        0.0070
      7 C          61.7387   89.2960   11.8102 C.ar    1  UNL1       -0.0016
      8 C          62.7132   89.9677   12.7316 C.ar    1  UNL1        0.0030
      9 C          62.6705   89.6845   14.2041 C.ar    1  UNL1        0.0400
     10 C          63.6450   90.3562   15.1256 C.ar    1  UNL1        0.1724
     11 C          60.8070   88.9075    9.4162 C.3     1  UNL1        0.1410
     12 O          60.2542   90.2459    9.0251 O.3     1  UNL1       -0.3771
     13 H          60.7292   90.9440    9.5026 H       1  UNL1        0.2112
     14 C          61.3597   87.5691    9.8073 C.ar    1  UNL1        0.0825
     15 C          62.3219   86.7439    9.0052 C.ar    1  UNL1        0.1157
     16 N          62.6042   85.4856    9.7714 N.ar    1  UNL1       -0.2228
     17 C          61.8165   85.5331   11.0471 C.ar    1  UNL1        0.1749
     18 N          61.0474   86.8207   11.0693 N.ar    1  UNL1       -0.3361
     19 H          60.4436   87.1218   11.7863 H       1  UNL1        0.1673
     20 C          59.8325   88.2358    8.4947 C.3     1  UNL1        0.0340
     21 C          59.5009   88.8583    7.1709 C.3     1  UNL1        0.0031
     22 C          59.1897   86.9415    8.8970 C.3     1  UNL1        0.0031
     23 C          66.5674   93.0334   14.9672 C.3     1  UNL1        0.2526
     24 O          65.6367   91.9828   15.4963 O.3     1  UNL1       -0.4684
     25 O          63.6023   90.0730   16.5981 O.3     1  UNL1       -0.4684
     26 C          63.1170   88.7425   17.0921 C.3     1  UNL1        0.2526
@<TRIPOS>BOND
     1    23    24    1
     2    24     1    1
     3     1     2   ar
     4     2     3   ar
     5     3     4   ar
     6     4     5   ar
     7     5     6   ar
     8     6    11    1
     9    11    12    1
    10    11    14    1
    11    14    15   ar
    12    15    16   ar
    13    16    17   ar
    14    17    18   ar
    15    11    20    1
    16    20    21    1
    17    20    22    1
    18     6     7   ar
    19     7     8   ar
    20     8     9   ar
    21     9    10   ar
    22    10    25    1
    23    25    26    1
    24    10     1   ar
    25     8     3   ar
    26    18    14   ar
    27    12    13    1
    28    18    19    1
@<TRIPOS>MOLECULE
*****
 26 28 0 0 0
SMALL
GASTEIGER

@<TRIPOS>ATOM
      1 C          61.2612   87.7942    9.8350 C.ar    1  UNL1        0.1724
      2 C          61.6504   89.2417    9.7809 C.ar    1  UNL1        0.0400
      3 C          62.5885   89.8051   10.8070 C.ar    1  UNL1        0.0032
      4 C          62.9777   91.2526   10.7529 C.ar    1  UNL1       -0.0001
      5 C          63.9157   91.8159   11.7790 C.ar    1  UNL1       -0.0017
      6 C          64.4645   90.9315   12.8591 C.ar    1  UNL1        0.0070
      7 C          64.0754   89.4840   12.9132 C.ar    1  UNL1       -0.0016
      8 C          63.1373   88.9207   11.8872 C.ar    1  UNL1        0.0030
      9 C          62.7481   87.4731   11.9412 C.ar    1  UNL1        0.0400
     10 C          61.8101   86.9098   10.9152 C.ar    1  UNL1        0.1724
     11 C          65.4026   91.4949   13.8852 C.3     1  UNL1        0.1410
     12 O          64.8329   90.5660   14.9160 O.3     1  UNL1       -0.3771
     13 H          64.1382   90.0223   14.5127 H       1  UNL1        0.2112
     14 C          65.9723   92.4237   12.8544 C.ar    1  UNL1        0.0825
     15 C          66.8765   92.0363   11.7220 C.ar    1  UNL1        0.1157
     16 N          67.2009   93.2763   10.9427 N.ar    1  UNL1       -0.2228
     17 C          66.4970   94.4301   11.5935 C.ar    1  UNL1        0.1749
     18 N          65.7377   93.9032   12.7749 N.ar    1  UNL1       -0.3361
     19 H          65.1829   94.4350   13.3902 H       1  UNL1        0.1673
     20 C          66.3406   92.0582   14.9112 C.3     1  UNL1        0.0340
     21 C          65.7964   92.6994   16.1533 C.3     1  UNL1        0.0031
     22 C          67.8230   91.9803   14.6952 C.3     1  UNL1        0.0031
     23 C          59.5810   88.1511    7.8858 C.3     1  UNL1        0.2526
     24 O          60.3232   87.2308    8.8089 O.3     1  UNL1       -0.4684
     25 O          61.4208   85.4622   10.9692 O.3     1  UNL1       -0.4684
     26 C          62.4106   84.4364   11.4364 C.3     1  UNL1        0.2526
@<TRIPOS>BOND
     1    23    24    1
     2    24     1    1
     3     1     2   ar
     4     2     3   ar
     5     3     4   ar
     6     4     5   ar
     7     5     6   ar
     8     6    11    1
     9    11    12    1
    10    11    14    1
    11    14    15   ar
    12    15    16   ar
    13    16    17   ar
    14    17    18   ar
    15    11    20    1
    16    20    21    1
    17    20    22    1
    18     6     7   ar
    19     7     8   ar
    20     8     9   ar
    21     9    10   ar
    22    10    25    1
    23    25    26    1
    24    10     1   ar
    25     8     3   ar
    26    18    14   ar
    27    12    13    1
    28    18    19    1
@<TRIPOS>MOLECULE
*****
 26 28 0 0 0
SMALL
GASTEIGER

@<TRIPOS>ATOM
      1 C          63.0832   90.2359   11.3417 C.ar    1  UNL1        0.1724
      2 C          62.4867   89.0833   10.5898 C.ar    1  UNL1        0.0400
      3 C          62.5440   87.7003   11.1680 C.ar    1  UNL1        0.0032
      4 C          61.9475   86.5477   10.4160 C.ar    1  UNL1       -0.0001
      5 C          62.0049   85.1648   10.9942 C.ar    1  UNL1       -0.0017
      6 C          62.6588   84.9346   12.3244 C.ar    1  UNL1        0.0070
      7 C          63.2553   86.0873   13.0764 C.ar    1  UNL1       -0.0016
      8 C          63.1979   87.4701   12.4982 C.ar    1  UNL1        0.0030
      9 C          63.7944   88.6229   13.2502 C.ar    1  UNL1        0.0400
     10 C          63.7371   90.0057   12.6719 C.ar    1  UNL1        0.1724
     11 C          62.7161   83.5517   12.9027 C.3     1  UNL1        0.1410
     12 O          62.5638   82.9707   11.5282 O.3     1  UNL1       -0.3771
     13 H          62.4960   83.6885   10.8794 H       1  UNL1        0.2112
     14 C          62.8684   84.1327   14.2771 C.ar    1  UNL1        0.0825
     15 C          64.1527   84.2661   15.0407 C.ar    1  UNL1        0.1157
     16 N          63.8412   84.8982   16.3649 N.ar    1  UNL1       -0.2228
     17 C          62.3644   85.1556   16.4197 C.ar    1  UNL1        0.1749
     18 N          61.7632   84.6825   15.1294 N.ar    1  UNL1       -0.3361
     19 H          60.8105   84.7254   14.8849 H       1  UNL1        0.1673
     20 C          62.7735   82.1689   13.4809 C.3     1  UNL1        0.0340
     21 C          64.0228   81.3500   13.3444 C.3     1  UNL1        0.0031
     22 C          61.5814   81.6048   14.1957 C.3     1  UNL1        0.0031
     23 C          64.2936   92.3311   10.3954 C.3     1  UNL1        0.2526
     24 O          63.0258   91.6189   10.7635 O.3     1  UNL1       -0.4684
     25 O          64.3336   91.1585   13.4239 O.3     1  UNL1       -0.4684
     26 C          65.3214   90.9056   14.5241 C.3     1  UNL1        0.2526
@<TRIPOS>BOND
     1    23    24    1
     2    24     1    1
     3     1     2   ar
     4     2     3   ar
     5     3     4   ar
     6     4     5   ar
     7     5     6   ar
     8     6    11    1
     9    11    12    1
    10    11    14    1
    11    14    15   ar
    12    15    16   ar
    13    16    17   ar
    14    17    18   ar
    15    11    20    1
    16    20    21    1
    17    20    22    1
    18     6     7   ar
    19     7     8   ar
    20     8     9   ar
    21     9    10   ar
    22    10    25    1
    23    25    26    1
    24    10     1   ar
    25     8     3   ar
    26    18    14   ar
    27    12    13    1
    28    18    19    1
@<TRIPOS>MOLECULE
*****
 26 28 0 0 0
SMALL
GASTEIGER

@<TRIPOS>ATOM
      1 C          63.8115   82.7165   12.5960 C.ar    1  UNL1        0.1724
      2 C          63.8588   83.0993   11.1464 C.ar    1  UNL1        0.0400
      3 C          63.1118   84.3077   10.6650 C.ar    1  UNL1        0.0032
      4 C          63.1591   84.6904    9.2154 C.ar    1  UNL1       -0.0001
      5 C          62.4121   85.8987    8.7340 C.ar    1  UNL1       -0.0017
      6 C          61.6177   86.7243    9.7022 C.ar    1  UNL1        0.0070
      7 C          61.5704   86.3416   11.1517 C.ar    1  UNL1       -0.0016
      8 C          62.3174   85.1333   11.6331 C.ar    1  UNL1        0.0030
      9 C          62.2701   84.7505   13.0827 C.ar    1  UNL1        0.0400
     10 C          63.0171   83.5422   13.5641 C.ar    1  UNL1        0.1724
     11 C          60.8706   87.9328    9.2207 C.3     1  UNL1        0.1410
     12 O          60.1502   87.0862    8.2137 O.3     1  UNL1       -0.3771
     13 H          60.4503   86.1669    8.2901 H       1  UNL1        0.2112
     14 C          61.5911   88.7793   10.2277 C.ar    1  UNL1        0.0825
     15 C          62.7742   89.6600    9.9542 C.ar    1  UNL1        0.1157
     16 N          63.1693   90.3189   11.2426 N.ar    1  UNL1       -0.2228
     17 C          62.2304   89.8454   12.3123 C.ar    1  UNL1        0.1749
     18 N          61.2550   88.8940   11.6851 N.ar    1  UNL1       -0.3361
     19 H          60.5229   88.4268   12.1486 H       1  UNL1        0.1673
     20 C          60.1236   89.1411    8.7393 C.3     1  UNL1        0.0340
     21 C          59.7851   90.2445    9.6973 C.3     1  UNL1        0.0031
     22 C          59.7152   89.2461    7.2997 C.3     1  UNL1        0.0031
     23 C          63.8185   80.3824   13.7371 C.3     1  UNL1        0.2526
     24 O          64.5585   81.5081   13.0775 O.3     1  UNL1       -0.4684
     25 O          62.9698   83.1594   15.0138 O.3     1  UNL1       -0.4684
     26 C          62.5685   84.1728   16.0443 C.3     1  UNL1        0.2526
@<TRIPOS>BOND
     1    23    24    1
     2    24     1    1
     3     1     2   ar
     4     2     3   ar
     5     3     4   ar
     6     4     5   ar
     7     5     6   ar
     8     6    11    1
     9    11    12    1
    10    11    14    1
    11    14    15   ar
    12    15    16   ar
    13    16    17   ar
    14    17    18   ar
    15    11    20    1
    16    20    21    1
    17    20    22    1
    18     6     7   ar
    19     7     8   ar
    20     8     9   ar
    21     9    10   ar
    22    10    25    1
    23    25    26    1
    24    10     1   ar
    25     8     3   ar
    26    18    14   ar
    27    12    13    1
    28    18    19    1
