@<TRIPOS>MOLECULE
*****
 50 54 0 0 0
SMALL
GASTEIGER

@<TRIPOS>ATOM
      1 C          61.2192   87.5108    9.4399 C.3     1  UNL1        0.0337
      2 C          60.4862   87.7598    8.1551 C.3     1  UNL1        0.0220
      3 C          59.7419   89.0465    7.9536 C.3     1  UNL1        0.0689
      4 N          59.7306   90.0840    9.0367 N.3     1  UNL1       -0.2970
      5 C          60.4637   89.8350   10.3216 C.3     1  UNL1        0.0780
      6 C          61.2080   88.5483   10.5231 C.3     1  UNL1        0.0964
      7 H          58.7534   90.2436    9.2815 H       1  UNL1        0.1233
      8 C          63.4521   83.6509   10.0446 C.ar    1  UNL1        0.1387
      9 C          63.6776   84.4612    8.8026 C.ar    1  UNL1        0.0366
     10 C          62.9333   85.7478    8.6010 C.ar    1  UNL1       -0.0012
     11 C          61.9635   86.2241    9.6414 C.ar    1  UNL1       -0.0217
     12 C          61.7379   85.4138   10.8835 C.ar    1  UNL1       -0.0012
     13 C          62.4822   84.1272   11.0851 C.ar    1  UNL1        0.0366
     14 O          64.1964   82.3643   10.2461 O.3     1  UNL1       -0.4714
     15 C          63.6400   81.3108   11.1577 C.3     1  UNL1        0.2525
     16 C          63.7022   81.4968   12.6448 C.3     1  UNL1        0.2525
     17 O          64.5761   82.5657   13.2310 O.3     1  UNL1       -0.4697
     18 C          62.3674   86.3168   17.3603 C.3     1  UNL1        0.0311
     19 C          62.9196   85.3790   16.3280 C.ar    1  UNL1       -0.0200
     20 C          64.2912   85.6066   15.7651 C.ar    1  UNL1        0.0103
     21 C          64.8434   84.6688   14.7328 C.ar    1  UNL1        0.0921
     22 CL         66.2151   84.8964   14.1700 Cl      1  UNL1       -0.0791
     23 C          64.0239   83.5035   14.2633 C.ar    1  UNL1        0.1596
     24 C          62.6523   83.2759   14.8262 C.ar    1  UNL1        0.0921
     25 CL         61.8328   82.1105   14.3567 Cl      1  UNL1       -0.0791
     26 C          62.1001   84.2137   15.8585 C.ar    1  UNL1        0.0103
     27 C          61.9410   88.2993   11.8079 C.2     1  UNL1        0.2270
     28 O          61.6046   87.0994   12.6429 O.2     1  UNL1       -0.2748
     29 N          63.0104   89.2500   12.2576 N.am    1  UNL1       -0.2770
     30 C          63.3468   90.4499   11.4226 C.3     1  UNL1        0.0758
     31 C          63.5232   91.9337   11.2924 C.3     1  UNL1        0.0215
     32 C          63.7531   91.0441   10.1067 C.3     1  UNL1        0.0215
     33 C          63.7435   89.0010   13.5424 C.3     1  UNL1        0.1209
     34 C          64.3807   90.1437   14.2760 C.ar    1  UNL1        0.0080
     35 C          65.5030   90.9100   13.6410 C.ar    1  UNL1       -0.0044
     36 C          66.1402   92.0527   14.3746 C.ar    1  UNL1       -0.0028
     37 C          65.6552   92.4291   15.7432 C.ar    1  UNL1       -0.0018
     38 C          64.5329   91.6628   16.3782 C.ar    1  UNL1        0.0109
     39 C          63.8957   90.5201   15.6446 C.ar    1  UNL1        0.0553
     40 CL         62.7734   89.7538   16.2796 Cl      1  UNL1       -0.0825
     41 C          67.2625   92.8191   13.7396 C.3     1  UNL1        0.1163
     42 N          67.5336   92.6736   12.2715 N.am    1  UNL1       -0.3002
     43 C          66.7628   93.4956   11.2815 C.2     1  UNL1        0.2314
     44 O          65.7209   94.4630   11.7595 O.2     1  UNL1       -0.2748
     45 H          68.2174   92.0387   11.9578 H       1  UNL1        0.1497
     46 C          67.0338   93.3502    9.8134 C.3     1  UNL1        0.1880
     47 C          68.3544   92.8158    9.3439 C.3     1  UNL1        0.4063
     48 F          69.6750   92.2814    8.8743 F       1  UNL1       -0.1695
     49 F          67.8302   91.4154    9.4633 F       1  UNL1       -0.1695
     50 F          68.8786   94.2161    9.2245 F       1  UNL1       -0.1695
@<TRIPOS>BOND
     1    18    19    1
     2    19    20   ar
     3    20    21   ar
     4    21    22    1
     5    21    23   ar
     6    23    17    1
     7    17    16    1
     8    16    15    1
     9    15    14    1
    10    14     8    1
    11     8     9   ar
    12     9    10   ar
    13    10    11   ar
    14     1    11    1
    15     1     2    1
    16     2     3    1
    17     3     4    1
    18     4     5    1
    19     5     6    1
    20     6    27    1
    21    27    28    2
    22    27    29   am
    23    29    33    1
    24    33    34    1
    25    34    35   ar
    26    35    36   ar
    27    36    41    1
    28    41    42    1
    29    42    43   am
    30    43    44    2
    31    43    46    1
    32    46    47    1
    33    47    48    1
    34    47    49    1
    35    47    50    1
    36    36    37   ar
    37    37    38   ar
    38    38    39   ar
    39    39    40    1
    40    29    30    1
    41    30    31    1
    42    31    32    1
    43    11    12   ar
    44    12    13   ar
    45    23    24   ar
    46    24    25    1
    47    24    26   ar
    48    26    19   ar
    49    13     8   ar
    50     6     1    1
    51    39    34   ar
    52    32    30    1
    53     4     7    1
    54    42    45    1
@<TRIPOS>MOLECULE
*****
 50 54 0 0 0
SMALL
GASTEIGER

@<TRIPOS>ATOM
      1 C          60.7839   89.4033    9.2082 C.3     1  UNL1        0.0337
      2 C          60.5703   90.0034    7.8502 C.3     1  UNL1        0.0220
      3 C          59.6350   89.3466    6.8786 C.3     1  UNL1        0.0689
      4 N          58.9134   88.0897    7.2651 N.3     1  UNL1       -0.2970
      5 C          59.1269   87.4896    8.6232 C.3     1  UNL1        0.0780
      6 C          60.0622   88.1464    9.5947 C.3     1  UNL1        0.0964
      7 H          59.1766   87.3777    6.5838 H       1  UNL1        0.1233
      8 C          63.5896   91.3737   12.1229 C.ar    1  UNL1        0.1387
      9 C          62.5002   90.4722   12.6231 C.ar    1  UNL1        0.0366
     10 C          61.5650   89.8153   11.6516 C.ar    1  UNL1       -0.0012
     11 C          61.7191   90.0601   10.1798 C.ar    1  UNL1       -0.0217
     12 C          62.8086   90.9618    9.6794 C.ar    1  UNL1       -0.0012
     13 C          63.7438   91.6186   10.6510 C.ar    1  UNL1        0.0366
     14 O          64.5249   92.0306   13.0944 O.3     1  UNL1       -0.4714
     15 C          65.9264   91.5187   13.2493 C.3     1  UNL1        0.2525
     16 C          67.0900   92.4136   12.9409 C.3     1  UNL1        0.2525
     17 O          67.6898   92.4170   11.5660 O.3     1  UNL1       -0.4697
     18 C          66.3992   96.8558    7.7409 C.3     1  UNL1        0.0311
     19 C          66.7218   95.7461    8.6972 C.ar    1  UNL1       -0.0200
     20 C          67.4970   94.5516    8.2259 C.ar    1  UNL1        0.0103
     21 C          67.8197   93.4419    9.1822 C.ar    1  UNL1        0.0921
     22 CL         68.5949   92.2473    8.7109 Cl      1  UNL1       -0.0791
     23 C          67.3671   93.5267   10.6098 C.ar    1  UNL1        0.1596
     24 C          66.5919   94.7212   11.0810 C.ar    1  UNL1        0.0921
     25 CL         66.1393   94.8061   12.5086 Cl      1  UNL1       -0.0791
     26 C          66.2693   95.8309   10.1247 C.ar    1  UNL1        0.0103
     27 C          60.2758   87.5463   10.9527 C.2     1  UNL1        0.2270
     28 O          59.4505   88.0105   12.1161 O.2     1  UNL1       -0.2748
     29 N          61.3147   86.4820   11.1474 N.am    1  UNL1       -0.2770
     30 C          62.1400   86.0178    9.9841 C.3     1  UNL1        0.0758
     31 C          62.9761   86.3288    8.7783 C.3     1  UNL1        0.0215
     32 C          62.7332   84.9027    9.1750 C.3     1  UNL1        0.0215
     33 C          61.5283   85.8819   12.5055 C.3     1  UNL1        0.1209
     34 C          62.6961   84.9724   12.7483 C.ar    1  UNL1        0.0080
     35 C          62.6644   83.5601   12.2441 C.ar    1  UNL1       -0.0044
     36 C          63.8324   82.6506   12.4870 C.ar    1  UNL1       -0.0028
     37 C          65.0319   83.1535   13.2340 C.ar    1  UNL1       -0.0018
     38 C          65.0636   84.5659   13.7382 C.ar    1  UNL1        0.0109
     39 C          63.8958   85.4753   13.4954 C.ar    1  UNL1        0.0553
     40 CL         63.9275   86.8877   13.9996 Cl      1  UNL1       -0.0825
     41 C          63.8006   81.2382   11.9828 C.3     1  UNL1        0.1163
     42 N          62.5979   80.3784   12.2357 N.am    1  UNL1       -0.3002
     43 C          62.0680   80.2215   13.6302 C.2     1  UNL1        0.2314
     44 O          62.7408   80.9243   14.7717 O.2     1  UNL1       -0.2748
     45 H          62.1562   79.9171   11.4864 H       1  UNL1        0.1497
     46 C          60.8652   79.3616   13.8831 C.3     1  UNL1        0.1880
     47 C          59.5488   79.9949   14.2238 C.3     1  UNL1        0.4063
     48 F          58.2324   80.6282   14.5645 F       1  UNL1       -0.1695
     49 F          58.9144   78.6375   14.2956 F       1  UNL1       -0.1695
     50 F          60.1832   81.3523   14.1520 F       1  UNL1       -0.1695
@<TRIPOS>BOND
     1    18    19    1
     2    19    20   ar
     3    20    21   ar
     4    21    22    1
     5    21    23   ar
     6    23    17    1
     7    17    16    1
     8    16    15    1
     9    15    14    1
    10    14     8    1
    11     8     9   ar
    12     9    10   ar
    13    10    11   ar
    14     1    11    1
    15     1     2    1
    16     2     3    1
    17     3     4    1
    18     4     5    1
    19     5     6    1
    20     6    27    1
    21    27    28    2
    22    27    29   am
    23    29    33    1
    24    33    34    1
    25    34    35   ar
    26    35    36   ar
    27    36    41    1
    28    41    42    1
    29    42    43   am
    30    43    44    2
    31    43    46    1
    32    46    47    1
    33    47    48    1
    34    47    49    1
    35    47    50    1
    36    36    37   ar
    37    37    38   ar
    38    38    39   ar
    39    39    40    1
    40    29    30    1
    41    30    31    1
    42    31    32    1
    43    11    12   ar
    44    12    13   ar
    45    23    24   ar
    46    24    25    1
    47    24    26   ar
    48    26    19   ar
    49    13     8   ar
    50     6     1    1
    51    39    34   ar
    52    32    30    1
    53     4     7    1
    54    42    45    1
@<TRIPOS>MOLECULE
*****
 50 54 0 0 0
SMALL
GASTEIGER

@<TRIPOS>ATOM
      1 C          60.6192   86.8630    8.6889 C.3     1  UNL1        0.0337
      2 C          59.3736   86.3466    8.0319 C.3     1  UNL1        0.0220
      3 C          58.3345   87.3072    7.5345 C.3     1  UNL1        0.0689
      4 N          58.5410   88.7843    7.6942 N.3     1  UNL1       -0.2970
      5 C          59.7866   89.3008    8.3513 C.3     1  UNL1        0.0780
      6 C          60.8257   88.3401    8.8486 C.3     1  UNL1        0.0964
      7 H          57.7535   89.1344    8.2397 H       1  UNL1        0.1233
      8 C          63.7365   83.9810   10.1811 C.ar    1  UNL1        0.1387
      9 C          62.7044   84.5240   11.1243 C.ar    1  UNL1        0.0366
     10 C          61.6653   85.4847   10.6270 C.ar    1  UNL1       -0.0012
     11 C          61.6583   85.9023    9.1863 C.ar    1  UNL1       -0.0217
     12 C          62.6904   85.3592    8.2430 C.ar    1  UNL1       -0.0012
     13 C          63.7295   84.3986    8.7403 C.ar    1  UNL1        0.0366
     14 O          64.7756   83.0203   10.6784 O.3     1  UNL1       -0.4714
     15 C          64.3612   81.6960   11.2482 C.3     1  UNL1        0.2525
     16 C          63.9379   81.5966   12.6838 C.3     1  UNL1        0.2525
     17 O          64.7152   82.3153   13.7464 O.3     1  UNL1       -0.4697
     18 C          61.9858   86.3511   17.2482 C.3     1  UNL1        0.0311
     19 C          62.6681   85.3422   16.3728 C.ar    1  UNL1       -0.0200
     20 C          64.0899   85.5586   15.9465 C.ar    1  UNL1        0.0103
     21 C          64.7722   84.5496   15.0711 C.ar    1  UNL1        0.0921
     22 CL         66.1941   84.7661   14.6448 Cl      1  UNL1       -0.0791
     23 C          64.0328   83.3243   14.6219 C.ar    1  UNL1        0.1596
     24 C          62.6111   83.1079   15.0481 C.ar    1  UNL1        0.0921
     25 CL         61.8716   81.8825   14.5990 Cl      1  UNL1       -0.0791
     26 C          61.9287   84.1168   15.9236 C.ar    1  UNL1        0.0103
     27 C          62.0713   88.8565    9.5057 C.2     1  UNL1        0.2270
     28 O          63.4150   88.5426    8.9173 O.2     1  UNL1       -0.2748
     29 N          61.9733   89.6868   10.7510 N.am    1  UNL1       -0.2770
     30 C          60.6297   90.0007   11.3393 C.3     1  UNL1        0.0758
     31 C          59.5368   89.6929   12.3195 C.3     1  UNL1        0.0215
     32 C          59.3954   90.8521   11.3781 C.3     1  UNL1        0.0215
     33 C          63.2189   90.2033   11.4081 C.3     1  UNL1        0.1209
     34 C          63.4705   89.9267   12.8608 C.ar    1  UNL1        0.0080
     35 C          63.6495   91.0651   13.8210 C.ar    1  UNL1       -0.0044
     36 C          63.9010   90.7885   15.2737 C.ar    1  UNL1       -0.0028
     37 C          63.9736   89.3736   15.7661 C.ar    1  UNL1       -0.0018
     38 C          63.7945   88.2351   14.8059 C.ar    1  UNL1        0.0109
     39 C          63.5430   88.5117   13.3533 C.ar    1  UNL1        0.0553
     40 CL         63.3640   87.3733   12.3931 Cl      1  UNL1       -0.0825
     41 C          64.0800   91.9269   16.2339 C.3     1  UNL1        0.1163
     42 N          65.4587   92.3533   16.6430 N.am    1  UNL1       -0.3002
     43 C          66.3647   93.0167   15.6485 C.2     1  UNL1        0.2314
     44 O          65.8920   93.2538   14.2448 O.2     1  UNL1       -0.2748
     45 H          65.7690   92.1977   17.5643 H       1  UNL1        0.1497
     46 C          67.7434   93.4430   16.0576 C.3     1  UNL1        0.1880
     47 C          68.9374   92.9555   15.2918 C.3     1  UNL1        0.4063
     48 F          70.1315   92.4679   14.5259 F       1  UNL1       -0.1695
     49 F          68.1975   91.6996   14.9377 F       1  UNL1       -0.1695
     50 F          69.6773   94.2113   15.6459 F       1  UNL1       -0.1695
@<TRIPOS>BOND
     1    18    19    1
     2    19    20   ar
     3    20    21   ar
     4    21    22    1
     5    21    23   ar
     6    23    17    1
     7    17    16    1
     8    16    15    1
     9    15    14    1
    10    14     8    1
    11     8     9   ar
    12     9    10   ar
    13    10    11   ar
    14     1    11    1
    15     1     2    1
    16     2     3    1
    17     3     4    1
    18     4     5    1
    19     5     6    1
    20     6    27    1
    21    27    28    2
    22    27    29   am
    23    29    33    1
    24    33    34    1
    25    34    35   ar
    26    35    36   ar
    27    36    41    1
    28    41    42    1
    29    42    43   am
    30    43    44    2
    31    43    46    1
    32    46    47    1
    33    47    48    1
    34    47    49    1
    35    47    50    1
    36    36    37   ar
    37    37    38   ar
    38    38    39   ar
    39    39    40    1
    40    29    30    1
    41    30    31    1
    42    31    32    1
    43    11    12   ar
    44    12    13   ar
    45    23    24   ar
    46    24    25    1
    47    24    26   ar
    48    26    19   ar
    49    13     8   ar
    50     6     1    1
    51    39    34   ar
    52    32    30    1
    53     4     7    1
    54    42    45    1
@<TRIPOS>MOLECULE
*****
 50 54 0 0 0
SMALL
GASTEIGER

@<TRIPOS>ATOM
      1 C          63.6764   83.9913   12.6525 C.3     1  UNL1        0.0337
      2 C          64.6089   82.8186   12.7242 C.3     1  UNL1        0.0220
      3 C          64.7292   81.8836   11.5575 C.3     1  UNL1        0.0689
      4 N          63.9170   82.1212   10.3191 N.3     1  UNL1       -0.2970
      5 C          62.9844   83.2939   10.2473 C.3     1  UNL1        0.0780
      6 C          62.8641   84.2289   11.4140 C.3     1  UNL1        0.0964
      7 H          63.3508   81.2853   10.1734 H       1  UNL1        0.1233
      8 C          63.3155   86.7964   16.1526 C.ar    1  UNL1        0.1387
      9 C          64.1745   87.1668   14.9801 C.ar    1  UNL1        0.0366
     10 C          64.2948   86.2318   13.8134 C.ar    1  UNL1       -0.0012
     11 C          63.5561   84.9263   13.8192 C.ar    1  UNL1       -0.0217
     12 C          62.6970   84.5559   14.9918 C.ar    1  UNL1       -0.0012
     13 C          62.5767   85.4909   16.1585 C.ar    1  UNL1        0.0366
     14 O          63.1952   87.7315   17.3193 O.3     1  UNL1       -0.4714
     15 C          63.1240   89.2121   17.0896 C.3     1  UNL1        0.2525
     16 C          62.9914   89.7492   15.6953 C.3     1  UNL1        0.2525
     17 O          63.3597   91.1734   15.4020 O.3     1  UNL1       -0.4697
     18 C          69.1331   92.7620   15.0230 C.3     1  UNL1        0.0311
     19 C          67.6897   92.3648   15.1177 C.ar    1  UNL1       -0.0200
     20 C          67.0669   91.5371   14.0330 C.ar    1  UNL1        0.0103
     21 C          65.6235   91.1399   14.1277 C.ar    1  UNL1        0.0921
     22 CL         65.0006   90.3121   13.0428 Cl      1  UNL1       -0.0791
     23 C          64.8030   91.5705   15.3073 C.ar    1  UNL1        0.1596
     24 C          65.4259   92.3983   16.3920 C.ar    1  UNL1        0.0921
     25 CL         64.6054   92.8289   17.5717 Cl      1  UNL1       -0.0791
     26 C          66.8693   92.7954   16.2973 C.ar    1  UNL1        0.0103
     27 C          61.9315   85.4016   11.3423 C.2     1  UNL1        0.2270
     28 O          61.2520   85.8965   12.5846 O.2     1  UNL1       -0.2748
     29 N          61.6784   86.0792   10.0283 N.am    1  UNL1       -0.2770
     30 C          62.3579   85.5842    8.7860 C.3     1  UNL1        0.0758
     31 C          62.2777   85.0195    7.3987 C.3     1  UNL1        0.0215
     32 C          63.6149   85.2916    8.0216 C.3     1  UNL1        0.0215
     33 C          60.7458   87.2519    9.9565 C.3     1  UNL1        0.1209
     34 C          61.1678   88.5807   10.5098 C.ar    1  UNL1        0.0080
     35 C          62.4039   89.2518    9.9886 C.ar    1  UNL1       -0.0044
     36 C          62.8259   90.5807   10.5419 C.ar    1  UNL1       -0.0028
     37 C          62.0118   91.2384   11.6164 C.ar    1  UNL1       -0.0018
     38 C          60.7757   90.5673   12.1376 C.ar    1  UNL1        0.0109
     39 C          60.3537   89.2385   11.5843 C.ar    1  UNL1        0.0553
     40 CL         59.1175   88.5675   12.1055 Cl      1  UNL1       -0.0825
     41 C          64.0621   91.2517   10.0207 C.3     1  UNL1        0.1163
     42 N          64.3751   92.6628   10.4216 N.am    1  UNL1       -0.3002
     43 C          65.7995   93.0854   10.6280 C.2     1  UNL1        0.2314
     44 O          66.9108   92.0969   10.4336 O.2     1  UNL1       -0.2748
     45 H          63.6457   93.3116   10.5491 H       1  UNL1        0.1497
     46 C          66.1125   94.4965   11.0288 C.3     1  UNL1        0.1880
     47 C          66.3234   95.5456    9.9776 C.3     1  UNL1        0.4063
     48 F          66.5342   96.5947    8.9265 F       1  UNL1       -0.1695
     49 F          64.9296   96.0520   10.2034 F       1  UNL1       -0.1695
     50 F          67.7171   95.0392    9.7519 F       1  UNL1       -0.1695
@<TRIPOS>BOND
     1    18    19    1
     2    19    20   ar
     3    20    21   ar
     4    21    22    1
     5    21    23   ar
     6    23    17    1
     7    17    16    1
     8    16    15    1
     9    15    14    1
    10    14     8    1
    11     8     9   ar
    12     9    10   ar
    13    10    11   ar
    14     1    11    1
    15     1     2    1
    16     2     3    1
    17     3     4    1
    18     4     5    1
    19     5     6    1
    20     6    27    1
    21    27    28    2
    22    27    29   am
    23    29    33    1
    24    33    34    1
    25    34    35   ar
    26    35    36   ar
    27    36    41    1
    28    41    42    1
    29    42    43   am
    30    43    44    2
    31    43    46    1
    32    46    47    1
    33    47    48    1
    34    47    49    1
    35    47    50    1
    36    36    37   ar
    37    37    38   ar
    38    38    39   ar
    39    39    40    1
    40    29    30    1
    41    30    31    1
    42    31    32    1
    43    11    12   ar
    44    12    13   ar
    45    23    24   ar
    46    24    25    1
    47    24    26   ar
    48    26    19   ar
    49    13     8   ar
    50     6     1    1
    51    39    34   ar
    52    32    30    1
    53     4     7    1
    54    42    45    1
@<TRIPOS>MOLECULE
*****
 50 54 0 0 0
SMALL
GASTEIGER

@<TRIPOS>ATOM
      1 C          60.8164   89.2744    9.3392 C.3     1  UNL1        0.0337
      2 C          60.6325   89.7685    7.9349 C.3     1  UNL1        0.0220
      3 C          59.6952   89.0558    7.0057 C.3     1  UNL1        0.0689
      4 N          58.9418   87.8489    7.4807 N.3     1  UNL1       -0.2970
      5 C          59.1256   87.3547    8.8850 C.3     1  UNL1        0.0780
      6 C          60.0629   88.0674    9.8142 C.3     1  UNL1        0.0964
      7 H          59.1978   87.0795    6.8619 H       1  UNL1        0.1233
      8 C          63.6283   91.4125   12.1269 C.ar    1  UNL1        0.1387
      9 C          63.7648   91.5884   10.6435 C.ar    1  UNL1        0.0366
     10 C          62.8275   90.8757    9.7143 C.ar    1  UNL1       -0.0012
     11 C          61.7537   89.9871   10.2684 C.ar    1  UNL1       -0.0217
     12 C          61.6170   89.8111   11.7518 C.ar    1  UNL1       -0.0012
     13 C          62.5544   90.5239   12.6811 C.ar    1  UNL1        0.0366
     14 O          64.5656   92.1252   13.0561 O.3     1  UNL1       -0.4714
     15 C          65.9124   91.5381   13.3587 C.3     1  UNL1        0.2525
     16 C          67.1577   92.2869   12.9868 C.3     1  UNL1        0.2525
     17 O          67.6670   92.2420   11.5766 O.3     1  UNL1       -0.4697
     18 C          66.6492   96.8498    7.8710 C.3     1  UNL1        0.0311
     19 C          66.9037   95.6978    8.7974 C.ar    1  UNL1       -0.0200
     20 C          67.6467   94.4908    8.3067 C.ar    1  UNL1        0.0103
     21 C          67.9012   93.3388    9.2331 C.ar    1  UNL1        0.0921
     22 CL         68.6443   92.1317    8.7424 Cl      1  UNL1       -0.0791
     23 C          67.4126   93.3939   10.6502 C.ar    1  UNL1        0.1596
     24 C          66.6695   94.6010   11.1409 C.ar    1  UNL1        0.0921
     25 CL         66.1808   94.6561   12.5580 Cl      1  UNL1       -0.0791
     26 C          66.4151   95.7529   10.2145 C.ar    1  UNL1        0.0103
     27 C          60.2467   87.5733   11.2185 C.2     1  UNL1        0.2270
     28 O          59.4349   88.1631   12.3335 O.2     1  UNL1       -0.2748
     29 N          61.2423   86.4893   11.5078 N.am    1  UNL1       -0.2770
     30 C          62.0541   85.8995   10.3928 C.3     1  UNL1        0.0758
     31 C          62.3892   85.8165    8.9331 C.3     1  UNL1        0.0215
     32 C          63.1250   84.9610    9.9214 C.3     1  UNL1        0.0215
     33 C          61.4262   85.9951   12.9121 C.3     1  UNL1        0.1209
     34 C          62.7018   85.3110   13.3054 C.ar    1  UNL1        0.0080
     35 C          62.7751   83.8129   13.3225 C.ar    1  UNL1       -0.0044
     36 C          64.0508   83.1288   13.7159 C.ar    1  UNL1       -0.0028
     37 C          65.2531   83.9428   14.0922 C.ar    1  UNL1       -0.0018
     38 C          65.1799   85.4409   14.0751 C.ar    1  UNL1        0.0109
     39 C          63.9043   86.1250   13.6817 C.ar    1  UNL1        0.0553
     40 CL         63.8311   87.6231   13.6646 Cl      1  UNL1       -0.0825
     41 C          64.1240   81.6307   13.7330 C.3     1  UNL1        0.1163
     42 N          63.3762   80.8315   12.7074 N.am    1  UNL1       -0.3002
     43 C          63.6273   81.0633   11.2468 C.2     1  UNL1        0.2314
     44 O          64.6262   82.0942   10.8119 O.2     1  UNL1       -0.2748
     45 H          62.7205   80.1548   12.9928 H       1  UNL1        0.1497
     46 C          62.8794   80.2641   10.2212 C.3     1  UNL1        0.1880
     47 C          62.9430   78.7656   10.2455 C.3     1  UNL1        0.4063
     48 F          63.0067   77.2671   10.2699 F       1  UNL1       -0.1695
     49 F          63.5362   78.7684    8.8678 F       1  UNL1       -0.1695
     50 F          62.3499   78.7628   11.6233 F       1  UNL1       -0.1695
@<TRIPOS>BOND
     1    18    19    1
     2    19    20   ar
     3    20    21   ar
     4    21    22    1
     5    21    23   ar
     6    23    17    1
     7    17    16    1
     8    16    15    1
     9    15    14    1
    10    14     8    1
    11     8     9   ar
    12     9    10   ar
    13    10    11   ar
    14     1    11    1
    15     1     2    1
    16     2     3    1
    17     3     4    1
    18     4     5    1
    19     5     6    1
    20     6    27    1
    21    27    28    2
    22    27    29   am
    23    29    33    1
    24    33    34    1
    25    34    35   ar
    26    35    36   ar
    27    36    41    1
    28    41    42    1
    29    42    43   am
    30    43    44    2
    31    43    46    1
    32    46    47    1
    33    47    48    1
    34    47    49    1
    35    47    50    1
    36    36    37   ar
    37    37    38   ar
    38    38    39   ar
    39    39    40    1
    40    29    30    1
    41    30    31    1
    42    31    32    1
    43    11    12   ar
    44    12    13   ar
    45    23    24   ar
    46    24    25    1
    47    24    26   ar
    48    26    19   ar
    49    13     8   ar
    50     6     1    1
    51    39    34   ar
    52    32    30    1
    53     4     7    1
    54    42    45    1
@<TRIPOS>MOLECULE
*****
 50 54 0 0 0
SMALL
GASTEIGER

@<TRIPOS>ATOM
      1 C          61.1338   89.2817    9.3314 C.3     1  UNL1        0.0337
      2 C          61.0011   90.2403    8.1854 C.3     1  UNL1        0.0220
      3 C          60.0578   89.9371    7.0593 C.3     1  UNL1        0.0689
      4 N          59.2471   88.6752    7.0791 N.3     1  UNL1       -0.2970
      5 C          59.3797   87.7165    8.2252 C.3     1  UNL1        0.0780
      6 C          60.3230   88.0197    9.3514 C.3     1  UNL1        0.0964
      7 H          59.4867   88.1579    6.2333 H       1  UNL1        0.1233
      8 C          63.9637   90.1914   12.7099 C.ar    1  UNL1        0.1387
      9 C          63.5755   91.2723   11.7450 C.ar    1  UNL1        0.0366
     10 C          62.6322   90.9690   10.6189 C.ar    1  UNL1       -0.0012
     11 C          62.0771   89.5849   10.4576 C.ar    1  UNL1       -0.0217
     12 C          62.4653   88.5040   11.4225 C.ar    1  UNL1       -0.0012
     13 C          63.4086   88.8072   12.5486 C.ar    1  UNL1        0.0366
     14 O          64.9070   90.4946   13.8360 O.3     1  UNL1       -0.4714
     15 C          64.7331   91.7468   14.6435 C.3     1  UNL1        0.2525
     16 C          65.8416   92.7550   14.7120 C.3     1  UNL1        0.2525
     17 O          66.0271   93.7425   13.5983 O.3     1  UNL1       -0.4697
     18 C          68.7863   92.0743    8.5383 C.3     1  UNL1        0.0311
     19 C          68.0965   92.4913    9.8033 C.ar    1  UNL1       -0.0200
     20 C          68.4345   91.8163   11.0995 C.ar    1  UNL1        0.0103
     21 C          67.7447   92.2333   12.3645 C.ar    1  UNL1        0.0921
     22 CL         68.0826   91.5582   13.6607 Cl      1  UNL1       -0.0791
     23 C          66.7169   93.3254   12.3333 C.ar    1  UNL1        0.1596
     24 C          66.3790   94.0005   11.0372 C.ar    1  UNL1        0.0921
     25 CL         65.3513   95.0927   11.0060 Cl      1  UNL1       -0.0791
     26 C          67.0688   93.5834    9.7722 C.ar    1  UNL1        0.0103
     27 C          60.4556   87.0611   10.4974 C.2     1  UNL1        0.2270
     28 O          59.7805   87.3562   11.8040 O.2     1  UNL1       -0.2748
     29 N          61.2634   85.8075   10.3368 N.am    1  UNL1       -0.2770
     30 C          61.9386   85.5124    9.0303 C.3     1  UNL1        0.0758
     31 C          61.8535   85.1745    7.5713 C.3     1  UNL1        0.0215
     32 C          63.1929   85.3394    8.2262 C.3     1  UNL1        0.0215
     33 C          61.3961   84.8488   11.4829 C.3     1  UNL1        0.1209
     34 C          62.7521   84.5228   12.0349 C.ar    1  UNL1        0.0080
     35 C          63.3175   85.3337   13.1630 C.ar    1  UNL1       -0.0044
     36 C          64.6736   85.0076   13.7150 C.ar    1  UNL1       -0.0028
     37 C          65.4644   83.8707   13.1388 C.ar    1  UNL1       -0.0018
     38 C          64.8990   83.0597   12.0106 C.ar    1  UNL1        0.0109
     39 C          63.5429   83.3858   11.4587 C.ar    1  UNL1        0.0553
     40 CL         62.9776   82.5748   10.3305 Cl      1  UNL1       -0.0825
     41 C          65.2390   85.8185   14.8432 C.3     1  UNL1        0.1163
     42 N          64.4214   86.9121   15.4641 N.am    1  UNL1       -0.3002
     43 C          63.2317   86.5703   16.3114 C.2     1  UNL1        0.2314
     44 O          62.8597   85.1349   16.5378 O.2     1  UNL1       -0.2748
     45 H          64.6655   87.8542   15.3155 H       1  UNL1        0.1497
     46 C          62.4141   87.6638   16.9322 C.3     1  UNL1        0.1880
     47 C          62.9722   89.0524   17.0335 C.3     1  UNL1        0.4063
     48 F          63.5303   90.4410   17.1347 F       1  UNL1       -0.1695
     49 F          62.5011   89.3434   15.6394 F       1  UNL1       -0.1695
     50 F          63.4433   88.7615   18.4275 F       1  UNL1       -0.1695
@<TRIPOS>BOND
     1    18    19    1
     2    19    20   ar
     3    20    21   ar
     4    21    22    1
     5    21    23   ar
     6    23    17    1
     7    17    16    1
     8    16    15    1
     9    15    14    1
    10    14     8    1
    11     8     9   ar
    12     9    10   ar
    13    10    11   ar
    14     1    11    1
    15     1     2    1
    16     2     3    1
    17     3     4    1
    18     4     5    1
    19     5     6    1
    20     6    27    1
    21    27    28    2
    22    27    29   am
    23    29    33    1
    24    33    34    1
    25    34    35   ar
    26    35    36   ar
    27    36    41    1
    28    41    42    1
    29    42    43   am
    30    43    44    2
    31    43    46    1
    32    46    47    1
    33    47    48    1
    34    47    49    1
    35    47    50    1
    36    36    37   ar
    37    37    38   ar
    38    38    39   ar
    39    39    40    1
    40    29    30    1
    41    30    31    1
    42    31    32    1
    43    11    12   ar
    44    12    13   ar
    45    23    24   ar
    46    24    25    1
    47    24    26   ar
    48    26    19   ar
    49    13     8   ar
    50     6     1    1
    51    39    34   ar
    52    32    30    1
    53     4     7    1
    54    42    45    1
@<TRIPOS>MOLECULE
*****
 50 54 0 0 0
SMALL
GASTEIGER

@<TRIPOS>ATOM
      1 C          60.5203   88.1290    9.5169 C.3     1  UNL1        0.0337
      2 C          59.5703   88.8835    8.6348 C.3     1  UNL1        0.0220
      3 C          58.8785   88.1814    7.5041 C.3     1  UNL1        0.0689
      4 N          59.1367   86.7249    7.2554 N.3     1  UNL1       -0.2970
      5 C          60.0868   85.9704    8.1375 C.3     1  UNL1        0.0780
      6 C          60.7786   86.6724    9.2683 C.3     1  UNL1        0.0964
      7 H          59.4944   86.6477    6.3033 H       1  UNL1        0.1233
      8 C          62.5958   90.2350   12.9091 C.ar    1  UNL1        0.1387
      9 C          63.3480   89.9182   11.6506 C.ar    1  UNL1        0.0366
     10 C          62.6562   89.2162   10.5199 C.ar    1  UNL1       -0.0012
     11 C          61.2122   88.8310   10.6476 C.ar    1  UNL1       -0.0217
     12 C          60.4599   89.1478   11.9061 C.ar    1  UNL1       -0.0012
     13 C          61.1517   89.8498   13.0369 C.ar    1  UNL1        0.0366
     14 O          63.2876   90.9371   14.0398 O.3     1  UNL1       -0.4714
     15 C          64.7030   91.4066   13.8772 C.3     1  UNL1        0.2525
     16 C          64.9852   92.7223   13.2144 C.3     1  UNL1        0.2525
     17 O          66.4017   93.1769   13.0224 O.3     1  UNL1       -0.4697
     18 C          69.0111   92.6737    7.6431 C.3     1  UNL1        0.0311
     19 C          68.3588   92.7995    8.9879 C.ar    1  UNL1       -0.0200
     20 C          67.1947   93.7272    9.1730 C.ar    1  UNL1        0.0103
     21 C          66.5424   93.8530   10.5179 C.ar    1  UNL1        0.0921
     22 CL         65.3783   94.7808   10.7029 Cl      1  UNL1       -0.0791
     23 C          67.0540   93.0511   11.6776 C.ar    1  UNL1        0.1596
     24 C          68.2181   92.1233   11.4925 C.ar    1  UNL1        0.0921
     25 CL         68.7298   91.3214   12.6523 Cl      1  UNL1       -0.0791
     26 C          68.8704   91.9976   10.1477 C.ar    1  UNL1        0.0103
     27 C          61.7286   85.9179   10.1504 C.2     1  UNL1        0.2270
     28 O          61.6616   86.0836   11.6397 O.2     1  UNL1       -0.2748
     29 N          62.7457   84.9977    9.5431 N.am    1  UNL1       -0.2770
     30 C          62.8127   84.8320    8.0538 C.3     1  UNL1        0.0758
     31 C          62.8351   83.9438    6.8453 C.3     1  UNL1        0.0215
     32 C          62.9065   85.4332    6.6828 C.3     1  UNL1        0.0215
     33 C          63.6958   84.2432   10.4252 C.3     1  UNL1        0.1209
     34 C          63.1656   83.3272   11.4882 C.ar    1  UNL1        0.0080
     35 C          62.8143   83.8721   12.8409 C.ar    1  UNL1       -0.0044
     36 C          62.2841   82.9560   13.9038 C.ar    1  UNL1       -0.0028
     37 C          62.1053   81.4952   13.6141 C.ar    1  UNL1       -0.0018
     38 C          62.4566   80.9504   12.2614 C.ar    1  UNL1        0.0109
     39 C          62.9867   81.8663   11.1985 C.ar    1  UNL1        0.0553
     40 CL         63.3380   81.3215    9.8458 Cl      1  UNL1       -0.0825
     41 C          61.9328   83.5009   15.2565 C.3     1  UNL1        0.1163
     42 N          62.0897   84.9657   15.5389 N.am    1  UNL1       -0.3002
     43 C          63.4594   85.5572   15.6935 C.2     1  UNL1        0.2314
     44 O          64.6723   84.6840   15.5657 O.2     1  UNL1       -0.2748
     45 H          61.2936   85.5388   15.6228 H       1  UNL1        0.1497
     46 C          63.6163   87.0220   15.9759 C.3     1  UNL1        0.1880
     47 C          63.2409   87.5710   17.3204 C.3     1  UNL1        0.4063
     48 F          62.8656   88.1200   18.6649 F       1  UNL1       -0.1695
     49 F          63.2391   88.9595   16.7529 F       1  UNL1       -0.1695
     50 F          63.2428   86.1825   17.8879 F       1  UNL1       -0.1695
@<TRIPOS>BOND
     1    18    19    1
     2    19    20   ar
     3    20    21   ar
     4    21    22    1
     5    21    23   ar
     6    23    17    1
     7    17    16    1
     8    16    15    1
     9    15    14    1
    10    14     8    1
    11     8     9   ar
    12     9    10   ar
    13    10    11   ar
    14     1    11    1
    15     1     2    1
    16     2     3    1
    17     3     4    1
    18     4     5    1
    19     5     6    1
    20     6    27    1
    21    27    28    2
    22    27    29   am
    23    29    33    1
    24    33    34    1
    25    34    35   ar
    26    35    36   ar
    27    36    41    1
    28    41    42    1
    29    42    43   am
    30    43    44    2
    31    43    46    1
    32    46    47    1
    33    47    48    1
    34    47    49    1
    35    47    50    1
    36    36    37   ar
    37    37    38   ar
    38    38    39   ar
    39    39    40    1
    40    29    30    1
    41    30    31    1
    42    31    32    1
    43    11    12   ar
    44    12    13   ar
    45    23    24   ar
    46    24    25    1
    47    24    26   ar
    48    26    19   ar
    49    13     8   ar
    50     6     1    1
    51    39    34   ar
    52    32    30    1
    53     4     7    1
    54    42    45    1
