@<TRIPOS>MOLECULE
*****
 21 24 0 0 0
SMALL
GASTEIGER

@<TRIPOS>ATOM
      1 C          64.3863   88.3834   14.6661 C.3     1  UNL1        0.0853
      2 C          63.9327   89.1257   13.4440 C.3     1  UNL1        0.0086
      3 C          64.3577   90.5482   13.2298 C.3     1  UNL1        0.0005
      4 C          63.9041   91.2904   12.0078 C.3     1  UNL1        0.0000
      5 C          63.0256   90.6102   11.0001 C.3     1  UNL1        0.0000
      6 C          62.6007   89.1877   11.2143 C.3     1  UNL1        0.0000
      7 C          64.4836   90.0144   13.7794 C.3     1  UNL1        0.0000
      8 C          65.2361   91.2284   14.2375 C.3     1  UNL1        0.0000
      9 C          64.7826   91.9706   13.0155 C.3     1  UNL1        0.0000
     10 C          64.8112   89.8059   14.4518 C.3     1  UNL1        0.0005
     11 C          63.0542   88.4455   12.4363 C.3     1  UNL1        0.0005
     12 C          62.3670   86.5673   17.5599 C.3     1  UNL1        0.1152
     13 N          63.3199   86.7952   16.4241 N.am    1  UNL1       -0.2731
     14 C          63.4334   88.1554   15.8019 C.2     1  UNL1        0.2259
     15 O          62.5941   89.2875   16.3154 O.2     1  UNL1       -0.2749
     16 C          64.1592   85.6631   15.9106 C.3     1  UNL1        0.1266
     17 C          63.6051   84.7271   14.8778 C.ar    1  UNL1        0.0273
     18 C          63.6901   84.9046   13.3907 C.ar    1  UNL1        0.0044
     19 C          63.0061   83.7364   12.7446 C.ar    1  UNL1        0.0072
     20 C          62.4984   82.8369   13.8323 C.ar    1  UNL1        0.0352
     21 S          62.8685   83.4492   15.1507 S.2     1  UNL1       -0.0891
@<TRIPOS>BOND
     1    12    13    1
     2    13    16    1
     3    16    17    1
     4    17    18   ar
     5    18    19   ar
     6    19    20   ar
     7    20    21   ar
     8    13    14   am
     9    14    15    2
    10    14     1    1
    11     1     2    1
    12     2     3    1
    13     3     4    1
    14     4     5    1
    15     5     6    1
    16     6     7    1
    17     7     8    1
    18     8     9    1
    19     8    10    1
    20     6    11    1
    21    21    17   ar
    22    10     2    1
    23    11     2    1
    24     9     4    1
@<TRIPOS>MOLECULE
*****
 21 24 0 0 0
SMALL
GASTEIGER

@<TRIPOS>ATOM
      1 C          61.5553   85.7793   10.6465 C.3     1  UNL1        0.0853
      2 C          60.9362   86.7816    9.7179 C.3     1  UNL1        0.0086
      3 C          61.2459   88.2409    9.8749 C.3     1  UNL1        0.0005
      4 C          60.6269   89.2431    8.9463 C.3     1  UNL1        0.0000
      5 C          59.6981   88.7861    7.8608 C.3     1  UNL1        0.0000
      6 C          59.3883   87.3269    7.7038 C.3     1  UNL1        0.0000
      7 C          61.4597   87.5915   10.2431 C.3     1  UNL1        0.0000
      8 C          62.1748   88.6979   10.9605 C.3     1  UNL1        0.0000
      9 C          61.5557   89.7001   10.0319 C.3     1  UNL1        0.0000
     10 C          61.8650   87.2386   10.8035 C.3     1  UNL1        0.0005
     11 C          60.0074   86.3246    8.6324 C.3     1  UNL1        0.0005
     12 C          64.3933   83.0056   10.6034 C.3     1  UNL1        0.1152
     13 N          63.2578   83.8644   11.0758 N.am    1  UNL1       -0.2731
     14 C          62.6907   84.9205   10.1741 C.2     1  UNL1        0.2259
     15 O          63.2591   85.1179    8.8001 O.2     1  UNL1       -0.2749
     16 C          62.6894   83.6671   12.4498 C.3     1  UNL1        0.1266
     17 C          63.2355   84.4499   13.6069 C.ar    1  UNL1        0.0273
     18 C          63.9209   85.7817   13.5254 C.ar    1  UNL1        0.0044
     19 C          64.3011   86.1934   14.9167 C.ar    1  UNL1        0.0072
     20 C          63.8507   85.1159   15.8582 C.ar    1  UNL1        0.0352
     21 S          63.1921   84.0385   15.0487 S.2     1  UNL1       -0.0891
@<TRIPOS>BOND
     1    12    13    1
     2    13    16    1
     3    16    17    1
     4    17    18   ar
     5    18    19   ar
     6    19    20   ar
     7    20    21   ar
     8    13    14   am
     9    14    15    2
    10    14     1    1
    11     1     2    1
    12     2     3    1
    13     3     4    1
    14     4     5    1
    15     5     6    1
    16     6     7    1
    17     7     8    1
    18     8     9    1
    19     8    10    1
    20     6    11    1
    21    21    17   ar
    22    10     2    1
    23    11     2    1
    24     9     4    1
@<TRIPOS>MOLECULE
*****
 21 24 0 0 0
SMALL
GASTEIGER

@<TRIPOS>ATOM
      1 C          61.5793   85.6981   10.8289 C.3     1  UNL1        0.0853
      2 C          61.6827   87.1802   10.6221 C.3     1  UNL1        0.0086
      3 C          60.8565   87.8493    9.5639 C.3     1  UNL1        0.0005
      4 C          60.9600   89.3313    9.3572 C.3     1  UNL1        0.0000
      5 C          61.8895   90.1443   10.2087 C.3     1  UNL1        0.0000
      6 C          62.7156   89.4752   11.2669 C.3     1  UNL1        0.0000
      7 C          60.9406   87.1193    9.8150 C.3     1  UNL1        0.0000
      8 C          59.9270   87.0363    8.7125 C.3     1  UNL1        0.0000
      9 C          60.0304   88.5183    8.5058 C.3     1  UNL1        0.0000
     10 C          60.7531   86.3672    9.7707 C.3     1  UNL1        0.0005
     11 C          62.6122   87.9932   11.4736 C.3     1  UNL1        0.0005
     12 C          64.4034   82.9226   11.0956 C.3     1  UNL1        0.1152
     13 N          63.2521   83.8127   11.4591 N.am    1  UNL1       -0.2731
     14 C          62.7306   84.8080   10.4654 C.2     1  UNL1        0.2259
     15 O          63.3605   84.9131    9.1081 O.2     1  UNL1       -0.2749
     16 C          62.6222   83.7075   12.8164 C.3     1  UNL1        0.1266
     17 C          63.1334   84.5494   13.9477 C.ar    1  UNL1        0.0273
     18 C          64.0955   85.6942   13.8301 C.ar    1  UNL1        0.0044
     19 C          64.3290   86.2466   15.2050 C.ar    1  UNL1        0.0072
     20 C          63.5111   85.4431   16.1724 C.ar    1  UNL1        0.0352
     21 S          62.7723   84.3942   15.3953 S.2     1  UNL1       -0.0891
@<TRIPOS>BOND
     1    12    13    1
     2    13    16    1
     3    16    17    1
     4    17    18   ar
     5    18    19   ar
     6    19    20   ar
     7    20    21   ar
     8    13    14   am
     9    14    15    2
    10    14     1    1
    11     1     2    1
    12     2     3    1
    13     3     4    1
    14     4     5    1
    15     5     6    1
    16     6     7    1
    17     7     8    1
    18     8     9    1
    19     8    10    1
    20     6    11    1
    21    21    17   ar
    22    10     2    1
    23    11     2    1
    24     9     4    1
@<TRIPOS>MOLECULE
*****
 21 24 0 0 0
SMALL
GASTEIGER

@<TRIPOS>ATOM
      1 C          61.7599   85.8016   10.5072 C.3     1  UNL1        0.0853
      2 C          61.0692   86.8223    9.6521 C.3     1  UNL1        0.0086
      3 C          61.3643   88.2810    9.8390 C.3     1  UNL1        0.0005
      4 C          60.6736   89.3015    8.9839 C.3     1  UNL1        0.0000
      5 C          59.6877   88.8633    7.9418 C.3     1  UNL1        0.0000
      6 C          59.3925   87.4046    7.7548 C.3     1  UNL1        0.0000
      7 C          61.6106   87.6240   10.1716 C.3     1  UNL1        0.0000
      8 C          62.3502   88.7192   10.8811 C.3     1  UNL1        0.0000
      9 C          61.6595   89.7397   10.0260 C.3     1  UNL1        0.0000
     10 C          62.0551   87.2604   10.6942 C.3     1  UNL1        0.0005
     11 C          60.0833   86.3841    8.6100 C.3     1  UNL1        0.0005
     12 C          64.5522   83.0016   10.1709 C.3     1  UNL1        0.1152
     13 N          63.5198   83.9088   10.7719 N.am    1  UNL1       -0.2731
     14 C          62.7922   84.8945    9.9062 C.2     1  UNL1        0.2259
     15 O          63.0970   84.9728    8.4396 O.2     1  UNL1       -0.2749
     16 C          63.2150   83.8305   12.2385 C.3     1  UNL1        0.1266
     17 C          62.7251   82.5444   12.8350 C.ar    1  UNL1        0.0273
     18 C          62.8171   81.1875   12.2022 C.ar    1  UNL1        0.0044
     19 C          62.2061   80.1938   13.1452 C.ar    1  UNL1        0.0072
     20 C          61.7364   80.9366   14.3608 C.ar    1  UNL1        0.0352
     21 S          62.0572   82.3893   14.1691 S.2     1  UNL1       -0.0891
@<TRIPOS>BOND
     1    12    13    1
     2    13    16    1
     3    16    17    1
     4    17    18   ar
     5    18    19   ar
     6    19    20   ar
     7    20    21   ar
     8    13    14   am
     9    14    15    2
    10    14     1    1
    11     1     2    1
    12     2     3    1
    13     3     4    1
    14     4     5    1
    15     5     6    1
    16     6     7    1
    17     7     8    1
    18     8     9    1
    19     8    10    1
    20     6    11    1
    21    21    17   ar
    22    10     2    1
    23    11     2    1
    24     9     4    1
@<TRIPOS>MOLECULE
*****
 21 24 0 0 0
SMALL
GASTEIGER

@<TRIPOS>ATOM
      1 C          63.9782   90.6081   13.4595 C.3     1  UNL1        0.0853
      2 C          63.8648   89.1124   13.4722 C.3     1  UNL1        0.0086
      3 C          63.1642   88.4038   12.3511 C.3     1  UNL1        0.0005
      4 C          63.0508   86.9082   12.3638 C.3     1  UNL1        0.0000
      5 C          63.6382   86.1211   13.4976 C.3     1  UNL1        0.0000
      6 C          64.3388   86.8297   14.6187 C.3     1  UNL1        0.0000
      7 C          63.3205   89.1456   12.5191 C.3     1  UNL1        0.0000
      8 C          62.5768   89.1909   11.2172 C.3     1  UNL1        0.0000
      9 C          62.4635   87.6953   11.2299 C.3     1  UNL1        0.0000
     10 C          63.2775   89.8995   12.3384 C.3     1  UNL1        0.0005
     11 C          64.4522   88.3253   14.6060 C.3     1  UNL1        0.0005
     12 C          66.3943   92.6574   15.8497 C.3     1  UNL1        0.1152
     13 N          65.8728   91.9345   14.6433 N.am    1  UNL1       -0.2731
     14 C          64.4997   91.3310   14.6659 C.2     1  UNL1        0.2259
     15 O          63.6482   91.4503   15.8950 O.2     1  UNL1       -0.2749
     16 C          66.7243   91.8152   13.4141 C.3     1  UNL1        0.1266
     17 C          66.6001   92.8278   12.3146 C.ar    1  UNL1        0.0273
     18 C          66.2387   94.2737   12.4841 C.ar    1  UNL1        0.0044
     19 C          66.2308   94.9119   11.1267 C.ar    1  UNL1        0.0072
     20 C          66.5874   93.8603   10.1181 C.ar    1  UNL1        0.0352
     21 S          66.8157   92.5724   10.8523 S.2     1  UNL1       -0.0891
@<TRIPOS>BOND
     1    12    13    1
     2    13    16    1
     3    16    17    1
     4    17    18   ar
     5    18    19   ar
     6    19    20   ar
     7    20    21   ar
     8    13    14   am
     9    14    15    2
    10    14     1    1
    11     1     2    1
    12     2     3    1
    13     3     4    1
    14     4     5    1
    15     5     6    1
    16     6     7    1
    17     7     8    1
    18     8     9    1
    19     8    10    1
    20     6    11    1
    21    21    17   ar
    22    10     2    1
    23    11     2    1
    24     9     4    1
@<TRIPOS>MOLECULE
*****
 21 24 0 0 0
SMALL
GASTEIGER

@<TRIPOS>ATOM
      1 C          62.2157   84.9279   12.5160 C.3     1  UNL1        0.0853
      2 C          61.9414   85.6476   11.2287 C.3     1  UNL1        0.0086
      3 C          62.6125   85.2029    9.9631 C.3     1  UNL1        0.0005
      4 C          62.3381   85.9225    8.6760 C.3     1  UNL1        0.0000
      5 C          61.3927   87.0869    8.6545 C.3     1  UNL1        0.0000
      6 C          60.7216   87.5316    9.9201 C.3     1  UNL1        0.0000
      7 C          62.6246   84.9675   10.7030 C.3     1  UNL1        0.0000
      8 C          63.5579   84.0385    9.9847 C.3     1  UNL1        0.0000
      9 C          63.2836   84.7582    8.6975 C.3     1  UNL1        0.0000
     10 C          62.8868   84.4832   11.2503 C.3     1  UNL1        0.0005
     11 C          60.9959   86.8119   11.2072 C.3     1  UNL1        0.0005
     12 C          63.9631   85.6312   16.0091 C.3     1  UNL1        0.1152
     13 N          63.1266   84.9788   14.9486 N.am    1  UNL1       -0.2731
     14 C          63.0521   85.5803   13.5765 C.2     1  UNL1        0.2259
     15 O          63.8140   86.8343   13.2649 O.2     1  UNL1       -0.2749
     16 C          62.3647   83.7248   15.2602 C.3     1  UNL1        0.1266
     17 C          62.6081   82.4806   14.4585 C.ar    1  UNL1        0.0273
     18 C          63.9223   82.0479   13.8794 C.ar    1  UNL1        0.0044
     19 C          63.7064   80.7505   13.1582 C.ar    1  UNL1        0.0072
     20 C          62.2586   80.3814   13.2916 C.ar    1  UNL1        0.0352
     21 S          61.5798   81.4507   14.0953 S.2     1  UNL1       -0.0891
@<TRIPOS>BOND
     1    12    13    1
     2    13    16    1
     3    16    17    1
     4    17    18   ar
     5    18    19   ar
     6    19    20   ar
     7    20    21   ar
     8    13    14   am
     9    14    15    2
    10    14     1    1
    11     1     2    1
    12     2     3    1
    13     3     4    1
    14     4     5    1
    15     5     6    1
    16     6     7    1
    17     7     8    1
    18     8     9    1
    19     8    10    1
    20     6    11    1
    21    21    17   ar
    22    10     2    1
    23    11     2    1
    24     9     4    1
@<TRIPOS>MOLECULE
*****
 21 24 0 0 0
SMALL
GASTEIGER

@<TRIPOS>ATOM
      1 C          63.9525   83.8758   10.5011 C.3     1  UNL1        0.0853
      2 C          62.8762   84.9117   10.3639 C.3     1  UNL1        0.0086
      3 C          62.3980   85.3205    9.0023 C.3     1  UNL1        0.0005
      4 C          61.3218   86.3563    8.8652 C.3     1  UNL1        0.0000
      5 C          60.7239   86.9834   10.0897 C.3     1  UNL1        0.0000
      6 C          61.2022   86.5746   11.4513 C.3     1  UNL1        0.0000
      7 C          62.9268   84.8194    9.2709 C.3     1  UNL1        0.0000
      8 C          62.9958   84.6934    7.7778 C.3     1  UNL1        0.0000
      9 C          61.9197   85.7293    7.6407 C.3     1  UNL1        0.0000
     10 C          63.4741   84.2846    9.1395 C.3     1  UNL1        0.0005
     11 C          62.2784   85.5387   11.5884 C.3     1  UNL1        0.0005
     12 C          63.8147   81.2227   13.4494 C.3     1  UNL1        0.1152
     13 N          64.0859   82.4905   12.6951 N.am    1  UNL1       -0.2731
     14 C          63.6813   82.6079   11.2554 C.2     1  UNL1        0.2259
     15 O          63.0056   81.4574   10.5701 O.2     1  UNL1       -0.2749
     16 C          64.7616   83.6411   13.3804 C.3     1  UNL1        0.1266
     17 C          64.0665   84.3618   14.4973 C.ar    1  UNL1        0.0273
     18 C          64.5444   85.6142   15.1706 C.ar    1  UNL1        0.0044
     19 C          63.5447   85.9832   16.2263 C.ar    1  UNL1        0.0072
     20 C          62.4491   84.9589   16.2054 C.ar    1  UNL1        0.0352
     21 S          62.7716   83.9569   15.1368 S.2     1  UNL1       -0.0891
@<TRIPOS>BOND
     1    12    13    1
     2    13    16    1
     3    16    17    1
     4    17    18   ar
     5    18    19   ar
     6    19    20   ar
     7    20    21   ar
     8    13    14   am
     9    14    15    2
    10    14     1    1
    11     1     2    1
    12     2     3    1
    13     3     4    1
    14     4     5    1
    15     5     6    1
    16     6     7    1
    17     7     8    1
    18     8     9    1
    19     8    10    1
    20     6    11    1
    21    21    17   ar
    22    10     2    1
    23    11     2    1
    24     9     4    1
@<TRIPOS>MOLECULE
*****
 21 24 0 0 0
SMALL
GASTEIGER

@<TRIPOS>ATOM
      1 C          61.6578   85.8169   10.7163 C.3     1  UNL1        0.0853
      2 C          61.7441   87.3114   10.6208 C.3     1  UNL1        0.0086
      3 C          60.8955   88.0498    9.6286 C.3     1  UNL1        0.0005
      4 C          60.9819   89.5442    9.5331 C.3     1  UNL1        0.0000
      5 C          61.9169   90.3002   10.4299 C.3     1  UNL1        0.0000
      6 C          62.7656   89.5618   11.4221 C.3     1  UNL1        0.0000
      7 C          60.9902   87.3039    9.8224 C.3     1  UNL1        0.0000
      8 C          59.9605   87.2938    8.7318 C.3     1  UNL1        0.0000
      9 C          60.0469   88.7882    8.6364 C.3     1  UNL1        0.0000
     10 C          60.8091   86.5554    9.7240 C.3     1  UNL1        0.0005
     11 C          62.6792   88.0674   11.5175 C.3     1  UNL1        0.0005
     12 C          64.5189   83.1032   10.2691 C.3     1  UNL1        0.1152
     13 N          63.4627   83.9576   10.9050 N.am    1  UNL1       -0.2731
     14 C          62.7139   84.9624   10.0804 C.2     1  UNL1        0.2259
     15 O          63.0214   85.1127    8.6200 O.2     1  UNL1       -0.2749
     16 C          63.1552   83.8074   12.3654 C.3     1  UNL1        0.1266
     17 C          62.6836   82.4879   12.9007 C.ar    1  UNL1        0.0273
     18 C          62.8490   81.1553   12.2322 C.ar    1  UNL1        0.0044
     19 C          62.2314   80.1131   13.1168 C.ar    1  UNL1        0.0072
     20 C          61.6843   80.8017   14.3320 C.ar    1  UNL1        0.0352
     21 S          61.9638   82.2693   14.1984 S.2     1  UNL1       -0.0891
@<TRIPOS>BOND
     1    12    13    1
     2    13    16    1
     3    16    17    1
     4    17    18   ar
     5    18    19   ar
     6    19    20   ar
     7    20    21   ar
     8    13    14   am
     9    14    15    2
    10    14     1    1
    11     1     2    1
    12     2     3    1
    13     3     4    1
    14     4     5    1
    15     5     6    1
    16     6     7    1
    17     7     8    1
    18     8     9    1
    19     8    10    1
    20     6    11    1
    21    21    17   ar
    22    10     2    1
    23    11     2    1
    24     9     4    1
@<TRIPOS>MOLECULE
*****
 21 24 0 0 0
SMALL
GASTEIGER

@<TRIPOS>ATOM
      1 C          62.0141   85.1836   12.5209 C.3     1  UNL1        0.0853
      2 C          62.4028   85.0984   11.0746 C.3     1  UNL1        0.0086
      3 C          61.8114   86.0545   10.0816 C.3     1  UNL1        0.0005
      4 C          62.2000   85.9693    8.6353 C.3     1  UNL1        0.0000
      5 C          63.1800   84.9280    8.1821 C.3     1  UNL1        0.0000
      6 C          63.7713   83.9719    9.1751 C.3     1  UNL1        0.0000
      7 C          61.7386   85.9426   10.8465 C.3     1  UNL1        0.0000
      8 C          60.8314   87.0958   10.5348 C.3     1  UNL1        0.0000
      9 C          61.2201   87.0106    9.0886 C.3     1  UNL1        0.0000
     10 C          61.4228   86.1397   11.5278 C.3     1  UNL1        0.0005
     11 C          63.3827   84.0571   10.6214 C.3     1  UNL1        0.0005
     12 C          64.1562   85.4002   15.8548 C.3     1  UNL1        0.1152
     13 N          63.1614   84.9251   14.8376 N.am    1  UNL1       -0.2731
     14 C          63.0089   85.6587   13.5381 C.2     1  UNL1        0.2259
     15 O          63.8512   86.8673   13.2558 O.2     1  UNL1       -0.2749
     16 C          62.3192   83.7164   15.1199 C.3     1  UNL1        0.1266
     17 C          62.5375   82.4520   14.3430 C.ar    1  UNL1        0.0273
     18 C          63.7939   82.0678   13.6191 C.ar    1  UNL1        0.0044
     19 C          63.5707   80.7282   12.9823 C.ar    1  UNL1        0.0072
     20 C          62.1764   80.2844   13.3127 C.ar    1  UNL1        0.0352
     21 S          61.5379   81.3498   14.1537 S.2     1  UNL1       -0.0891
@<TRIPOS>BOND
     1    12    13    1
     2    13    16    1
     3    16    17    1
     4    17    18   ar
     5    18    19   ar
     6    19    20   ar
     7    20    21   ar
     8    13    14   am
     9    14    15    2
    10    14     1    1
    11     1     2    1
    12     2     3    1
    13     3     4    1
    14     4     5    1
    15     5     6    1
    16     6     7    1
    17     7     8    1
    18     8     9    1
    19     8    10    1
    20     6    11    1
    21    21    17   ar
    22    10     2    1
    23    11     2    1
    24     9     4    1
