@<TRIPOS>MOLECULE
*****
 34 37 0 0 0
SMALL
GASTEIGER

@<TRIPOS>ATOM
      1 C          66.2583   93.4650   11.1821 C.ar    1  UNL1        0.1368
      2 C          65.0922   92.6341   10.7351 C.ar    1  UNL1        0.0251
      3 C          64.4127   91.7125   11.7041 C.ar    1  UNL1        0.0178
      4 C          63.2489   90.7781   11.5531 C.ar    1  UNL1        0.0126
      5 C          63.0163   90.1100   12.8758 C.ar    1  UNL1        0.0732
      6 N          64.0363   90.6314   13.8442 N.ar    1  UNL1       -0.3208
      7 C          64.8993   91.6218   13.1200 C.ar    1  UNL1        0.0793
      8 C          66.0654   92.4527   13.5670 C.ar    1  UNL1        0.1161
      9 N          66.7449   93.3743   12.5980 N.ar    1  UNL1       -0.2377
     10 C          66.9837   96.6201    8.8866 C.3     1  UNL1        0.1482
     11 N          66.3042   95.6984    9.8555 N.am    1  UNL1       -0.1653
     12 O          64.9912   96.0886   10.4669 O.3     1  UNL1       -0.2915
     13 C          66.9377   94.3867   10.2131 C.2     1  UNL1        0.2887
     14 O          68.2507   93.9966    9.6017 O.2     1  UNL1       -0.2662
     15 H          64.7243   96.9589   10.1318 H       1  UNL1        0.2417
     16 C          62.4569   90.5518   10.2996 C.3     1  UNL1        0.1010
     17 N          61.7521   89.2454   10.0834 N.3     1  UNL1       -0.2627
     18 C          62.2416   88.1094    9.2348 C.3     1  UNL1        0.0728
     19 C          61.2261   87.0076    9.3048 C.3     1  UNL1        0.0192
     20 C          60.1090   87.4626   10.1965 C.3     1  UNL1        0.0268
     21 C          60.4342   88.8457   10.6777 C.3     1  UNL1        0.1348
     22 C          59.5896   89.6822   11.5926 C.2     1  UNL1        0.2339
     23 N          59.0737   89.1023   12.8762 N.am    1  UNL1       -0.3277
     24 O          59.2610   91.0985   11.2239 O.2     1  UNL1       -0.2739
     25 H          59.2893   88.1727   13.1181 H       1  UNL1        0.1450
     26 H          58.5194   89.6513   13.4766 H       1  UNL1        0.1450
     27 C          64.1699   90.2325   15.2840 C.3     1  UNL1        0.1328
     28 C          63.8711   88.8234   15.7026 C.ar    1  UNL1        0.0005
     29 C          63.0494   88.5640   16.9304 C.ar    1  UNL1       -0.0001
     30 C          62.7507   87.1549   17.3491 C.ar    1  UNL1        0.0294
     31 C          63.2737   86.0052   16.5399 C.ar    1  UNL1        0.1401
     32 F          62.9750   84.5961   16.9585 F       1  UNL1       -0.2042
     33 C          64.0954   86.2646   15.3121 C.ar    1  UNL1        0.0294
     34 C          64.3941   87.6737   14.8935 C.ar    1  UNL1       -0.0001
@<TRIPOS>BOND
     1    10    11    1
     2    11    12    1
     3    11    13   am
     4    13    14    2
     5    13     1    1
     6     1     2   ar
     7     2     3   ar
     8     3     4   ar
     9     4    16    1
    10    16    17    1
    11    17    18    1
    12    18    19    1
    13    19    20    1
    14    20    21    1
    15    21    22    1
    16    22    23   am
    17    22    24    2
    18     4     5   ar
    19     5     6   ar
    20     6    27    1
    21    27    28    1
    22    28    29   ar
    23    29    30   ar
    24    30    31   ar
    25    31    32    1
    26    31    33   ar
    27    33    34   ar
    28     6     7   ar
    29     7     8   ar
    30     8     9   ar
    31     9     1   ar
    32     7     3   ar
    33    21    17    1
    34    34    28   ar
    35    12    15    1
    36    23    25    1
    37    23    26    1
@<TRIPOS>MOLECULE
*****
 34 37 0 0 0
SMALL
GASTEIGER

@<TRIPOS>ATOM
      1 C          65.5422   91.7292   14.3455 C.ar    1  UNL1        0.1368
      2 C          65.2793   90.2629   14.5209 C.ar    1  UNL1        0.0251
      3 C          64.3645   89.5463   13.5724 C.ar    1  UNL1        0.0178
      4 C          63.9194   88.1158   13.4953 C.ar    1  UNL1        0.0126
      5 C          62.9923   87.9815   12.3238 C.ar    1  UNL1        0.0732
      6 N          62.8645   89.3289   11.6769 N.ar    1  UNL1       -0.3208
      7 C          63.7126   90.2959   12.4487 C.ar    1  UNL1        0.0793
      8 C          63.9755   91.7622   12.2733 C.ar    1  UNL1        0.1161
      9 N          64.8903   92.4789   13.2217 N.ar    1  UNL1       -0.2377
     10 C          68.7606   93.5303   15.8111 C.3     1  UNL1        0.1482
     11 N          67.8458   92.8136   14.8627 N.am    1  UNL1       -0.1653
     12 O          68.3198   92.4647   13.4829 O.3     1  UNL1       -0.2915
     13 C          66.4570   92.4459   15.2939 C.2     1  UNL1        0.2887
     14 O          65.9830   92.7949   16.6736 O.2     1  UNL1       -0.2662
     15 H          69.2329   92.7711   13.3676 H       1  UNL1        0.2417
     16 C          64.3293   87.0134   14.4262 C.3     1  UNL1        0.1010
     17 N          63.5988   86.8148   15.7211 N.3     1  UNL1       -0.2627
     18 C          63.2985   87.8778   16.7361 C.3     1  UNL1        0.0728
     19 C          62.5544   87.2383   17.8707 C.3     1  UNL1        0.0192
     20 C          62.3948   85.7801   17.5571 C.3     1  UNL1        0.0268
     21 C          63.0403   85.5184   16.2286 C.3     1  UNL1        0.1348
     22 C          63.1143   84.1930   15.5301 C.2     1  UNL1        0.2339
     23 N          64.4180   83.4545   15.4590 N.am    1  UNL1       -0.3277
     24 O          61.8847   83.6062   14.9027 O.2     1  UNL1       -0.2739
     25 H          65.2250   83.8397   15.8708 H       1  UNL1        0.1450
     26 H          64.4666   82.5846   15.0005 H       1  UNL1        0.1450
     27 C          62.0344   89.6524   10.4702 C.3     1  UNL1        0.1328
     28 C          61.4672   88.5457    9.6314 C.ar    1  UNL1        0.0005
     29 C          60.1375   88.7199    8.9594 C.ar    1  UNL1       -0.0001
     30 C          59.5704   87.6133    8.1206 C.ar    1  UNL1        0.0294
     31 C          60.3328   86.3323    7.9538 C.ar    1  UNL1        0.1401
     32 F          59.7657   85.2256    7.1150 F       1  UNL1       -0.2042
     33 C          61.6625   86.1581    8.6258 C.ar    1  UNL1        0.0294
     34 C          62.2297   87.2648    9.4646 C.ar    1  UNL1       -0.0001
@<TRIPOS>BOND
     1    10    11    1
     2    11    12    1
     3    11    13   am
     4    13    14    2
     5    13     1    1
     6     1     2   ar
     7     2     3   ar
     8     3     4   ar
     9     4    16    1
    10    16    17    1
    11    17    18    1
    12    18    19    1
    13    19    20    1
    14    20    21    1
    15    21    22    1
    16    22    23   am
    17    22    24    2
    18     4     5   ar
    19     5     6   ar
    20     6    27    1
    21    27    28    1
    22    28    29   ar
    23    29    30   ar
    24    30    31   ar
    25    31    32    1
    26    31    33   ar
    27    33    34   ar
    28     6     7   ar
    29     7     8   ar
    30     8     9   ar
    31     9     1   ar
    32     7     3   ar
    33    21    17    1
    34    34    28   ar
    35    12    15    1
    36    23    25    1
    37    23    26    1
@<TRIPOS>MOLECULE
*****
 34 37 0 0 0
SMALL
GASTEIGER

@<TRIPOS>ATOM
      1 C          65.4772   91.6443   14.3663 C.ar    1  UNL1        0.1368
      2 C          65.2583   90.1758   14.5797 C.ar    1  UNL1        0.0251
      3 C          64.3457   89.4129   13.6658 C.ar    1  UNL1        0.0178
      4 C          63.9388   87.9696   13.6296 C.ar    1  UNL1        0.0126
      5 C          62.9935   87.7832   12.4800 C.ar    1  UNL1        0.0732
      6 N          62.8162   89.1113   11.8057 N.ar    1  UNL1       -0.3208
      7 C          63.6518   90.1185   12.5386 C.ar    1  UNL1        0.0793
      8 C          63.8707   91.5870   12.3252 C.ar    1  UNL1        0.1161
      9 N          64.7833   92.3499   13.2390 N.ar    1  UNL1       -0.2377
     10 C          68.6652   93.5813   15.7207 C.3     1  UNL1        0.1482
     11 N          67.7525   92.8184   14.8069 N.am    1  UNL1       -0.1653
     12 O          68.2026   92.4668   13.4198 O.3     1  UNL1       -0.2915
     13 C          66.3898   92.4072   15.2801 C.2     1  UNL1        0.2887
     14 O          65.9398   92.7588   16.6671 O.2     1  UNL1       -0.2662
     15 H          69.1005   92.8043   13.2760 H       1  UNL1        0.2417
     16 C          64.3968   86.9004   14.5767 C.3     1  UNL1        0.1010
     17 N          63.7473   85.5485   14.5525 N.3     1  UNL1       -0.2627
     18 C          63.9778   84.4778   13.5274 C.3     1  UNL1        0.0728
     19 C          63.1263   83.2976   13.8904 C.3     1  UNL1        0.0192
     20 C          62.3695   83.6387   15.1398 C.3     1  UNL1        0.0268
     21 C          62.7533   85.0298   15.5489 C.3     1  UNL1        0.1348
     22 C          62.2343   85.7720   16.7447 C.2     1  UNL1        0.2339
     23 N          63.1629   86.1280   17.8676 N.am    1  UNL1       -0.3277
     24 O          60.7867   86.1583   16.8175 O.2     1  UNL1       -0.2739
     25 H          64.1130   85.8744   17.8199 H       1  UNL1        0.1450
     26 H          62.8223   86.6151   18.6524 H       1  UNL1        0.1450
     27 C          61.9544   89.3844   10.6087 C.3     1  UNL1        0.1328
     28 C          61.5387   88.2569    9.7110 C.ar    1  UNL1        0.0005
     29 C          60.1819   88.2684    9.0716 C.ar    1  UNL1       -0.0001
     30 C          59.7661   87.1409    8.1738 C.ar    1  UNL1        0.0294
     31 C          60.7072   86.0018    7.9155 C.ar    1  UNL1        0.1401
     32 F          60.2916   84.8743    7.0178 F       1  UNL1       -0.2042
     33 C          62.0641   85.9903    8.5549 C.ar    1  UNL1        0.0294
     34 C          62.4798   87.1178    9.4526 C.ar    1  UNL1       -0.0001
@<TRIPOS>BOND
     1    10    11    1
     2    11    12    1
     3    11    13   am
     4    13    14    2
     5    13     1    1
     6     1     2   ar
     7     2     3   ar
     8     3     4   ar
     9     4    16    1
    10    16    17    1
    11    17    18    1
    12    18    19    1
    13    19    20    1
    14    20    21    1
    15    21    22    1
    16    22    23   am
    17    22    24    2
    18     4     5   ar
    19     5     6   ar
    20     6    27    1
    21    27    28    1
    22    28    29   ar
    23    29    30   ar
    24    30    31   ar
    25    31    32    1
    26    31    33   ar
    27    33    34   ar
    28     6     7   ar
    29     7     8   ar
    30     8     9   ar
    31     9     1   ar
    32     7     3   ar
    33    21    17    1
    34    34    28   ar
    35    12    15    1
    36    23    25    1
    37    23    26    1
@<TRIPOS>MOLECULE
*****
 34 37 0 0 0
SMALL
GASTEIGER

@<TRIPOS>ATOM
      1 C          62.4782   89.3686   10.8457 C.ar    1  UNL1        0.1368
      2 C          62.7031   89.0796   12.3003 C.ar    1  UNL1        0.0251
      3 C          63.6063   89.9623   13.1095 C.ar    1  UNL1        0.0178
      4 C          64.0161   89.9261   14.5521 C.ar    1  UNL1        0.0126
      5 C          64.9477   91.0756   14.7982 C.ar    1  UNL1        0.0732
      6 N          65.1138   91.8222   13.5079 N.ar    1  UNL1       -0.3208
      7 C          64.2847   91.1342   12.4642 C.ar    1  UNL1        0.0793
      8 C          64.0599   91.4233   11.0096 C.ar    1  UNL1        0.1161
      9 N          63.1566   90.5405   10.2004 N.ar    1  UNL1       -0.2377
     10 C          59.4458   88.1762    8.5802 C.3     1  UNL1        0.1482
     11 N          60.3490   89.0589    9.3895 N.am    1  UNL1       -0.1653
     12 O          60.0263   90.5149    9.5517 O.3     1  UNL1       -0.2915
     13 C          61.5750   88.4859   10.0365 C.2     1  UNL1        0.2887
     14 O          61.8976   87.0300    9.8742 O.2     1  UNL1       -0.2662
     15 H          59.2073   90.7197    9.0741 H       1  UNL1        0.2417
     16 C          63.5721   88.9175   15.5697 C.3     1  UNL1        0.1010
     17 N          63.9404   87.4729   15.4040 N.3     1  UNL1       -0.2627
     18 C          64.9419   86.9243   14.4313 C.3     1  UNL1        0.0728
     19 C          64.9923   85.4356   14.6080 C.3     1  UNL1        0.0192
     20 C          64.0220   85.0641   15.6900 C.3     1  UNL1        0.0268
     21 C          63.3719   86.3232   16.1819 C.3     1  UNL1        0.1348
     22 C          62.3352   86.4164   17.2621 C.2     1  UNL1        0.2339
     23 N          62.7382   86.7886   18.6581 N.am    1  UNL1       -0.3277
     24 O          60.8957   86.1373   16.9461 O.2     1  UNL1       -0.2739
     25 H          63.6830   86.9717   18.8655 H       1  UNL1        0.1450
     26 H          62.0578   86.8498   19.3671 H       1  UNL1        0.1450
     27 C          65.9602   93.0427   13.2980 C.3     1  UNL1        0.1328
     28 C          66.4491   93.3889   11.9228 C.ar    1  UNL1        0.0005
     29 C          67.3099   92.4206   11.1669 C.ar    1  UNL1       -0.0001
     30 C          67.7987   92.7668    9.7917 C.ar    1  UNL1        0.0294
     31 C          67.4268   94.0814    9.1724 C.ar    1  UNL1        0.1401
     32 F          67.9156   94.4278    7.7972 F       1  UNL1       -0.2042
     33 C          66.5660   95.0497    9.9283 C.ar    1  UNL1        0.0294
     34 C          66.0772   94.7035   11.3035 C.ar    1  UNL1       -0.0001
@<TRIPOS>BOND
     1    10    11    1
     2    11    12    1
     3    11    13   am
     4    13    14    2
     5    13     1    1
     6     1     2   ar
     7     2     3   ar
     8     3     4   ar
     9     4    16    1
    10    16    17    1
    11    17    18    1
    12    18    19    1
    13    19    20    1
    14    20    21    1
    15    21    22    1
    16    22    23   am
    17    22    24    2
    18     4     5   ar
    19     5     6   ar
    20     6    27    1
    21    27    28    1
    22    28    29   ar
    23    29    30   ar
    24    30    31   ar
    25    31    32    1
    26    31    33   ar
    27    33    34   ar
    28     6     7   ar
    29     7     8   ar
    30     8     9   ar
    31     9     1   ar
    32     7     3   ar
    33    21    17    1
    34    34    28   ar
    35    12    15    1
    36    23    25    1
    37    23    26    1
@<TRIPOS>MOLECULE
*****
 34 37 0 0 0
SMALL
GASTEIGER

@<TRIPOS>ATOM
      1 C          63.5590   85.8574   13.4697 C.ar    1  UNL1        0.1368
      2 C          63.2183   86.8719   12.4187 C.ar    1  UNL1        0.0251
      3 C          63.3986   88.3340   12.7012 C.ar    1  UNL1        0.0178
      4 C          63.1494   89.5556   11.8671 C.ar    1  UNL1        0.0126
      5 C          63.5166   90.7581   12.6851 C.ar    1  UNL1        0.0732
      6 N          63.9926   90.2797   14.0247 N.ar    1  UNL1       -0.3208
      7 C          63.9197   88.7815   14.0347 C.ar    1  UNL1        0.0793
      8 C          64.2604   87.7670   15.0856 C.ar    1  UNL1        0.1161
      9 N          64.0801   86.3049   14.8031 N.ar    1  UNL1       -0.2377
     10 C          62.4703   82.0638   13.8865 C.3     1  UNL1        0.1482
     11 N          62.6507   83.5259   14.1690 N.am    1  UNL1       -0.1653
     12 O          62.1029   84.1186   15.4335 O.3     1  UNL1       -0.2915
     13 C          63.3787   84.3953   13.1872 C.2     1  UNL1        0.2887
     14 O          63.9264   83.8026   11.9228 O.2     1  UNL1       -0.2662
     15 H          61.6651   83.4257   15.9522 H       1  UNL1        0.2417
     16 C          62.6252   89.5718   10.4618 C.3     1  UNL1        0.1010
     17 N          61.6593   88.5172   10.0095 N.3     1  UNL1       -0.2627
     18 C          61.9566   87.4015    9.0518 C.3     1  UNL1        0.0728
     19 C          60.7075   86.5878    8.8858 C.3     1  UNL1        0.0192
     20 C          59.6381   87.2006    9.7408 C.3     1  UNL1        0.0268
     21 C          60.2263   88.3929   10.4352 C.3     1  UNL1        0.1348
     22 C          59.5078   89.3016   11.3882 C.2     1  UNL1        0.2339
     23 N          58.9106   88.7469   12.6474 N.am    1  UNL1       -0.3277
     24 O          59.3865   90.7650   11.0819 O.2     1  UNL1       -0.2739
     25 H          58.9902   87.7864   12.8484 H       1  UNL1        0.1450
     26 H          58.4390   89.3433   13.2728 H       1  UNL1        0.1450
     27 C          64.4595   91.1472   15.1559 C.3     1  UNL1        0.1328
     28 C          65.8373   91.7396   15.1273 C.ar    1  UNL1        0.0005
     29 C          66.3019   92.6124   16.2553 C.ar    1  UNL1       -0.0001
     30 C          67.6797   93.2049   16.2268 C.ar    1  UNL1        0.0294
     31 C          68.5928   92.9246   15.0703 C.ar    1  UNL1        0.1401
     32 F          69.9706   93.5170   15.0416 F       1  UNL1       -0.2042
     33 C          68.1282   92.0518   13.9423 C.ar    1  UNL1        0.0294
     34 C          66.7504   91.4593   13.9708 C.ar    1  UNL1       -0.0001
@<TRIPOS>BOND
     1    10    11    1
     2    11    12    1
     3    11    13   am
     4    13    14    2
     5    13     1    1
     6     1     2   ar
     7     2     3   ar
     8     3     4   ar
     9     4    16    1
    10    16    17    1
    11    17    18    1
    12    18    19    1
    13    19    20    1
    14    20    21    1
    15    21    22    1
    16    22    23   am
    17    22    24    2
    18     4     5   ar
    19     5     6   ar
    20     6    27    1
    21    27    28    1
    22    28    29   ar
    23    29    30   ar
    24    30    31   ar
    25    31    32    1
    26    31    33   ar
    27    33    34   ar
    28     6     7   ar
    29     7     8   ar
    30     8     9   ar
    31     9     1   ar
    32     7     3   ar
    33    21    17    1
    34    34    28   ar
    35    12    15    1
    36    23    25    1
    37    23    26    1
@<TRIPOS>MOLECULE
*****
 34 37 0 0 0
SMALL
GASTEIGER

@<TRIPOS>ATOM
      1 C          61.5333   88.1638   10.7467 C.ar    1  UNL1        0.1368
      2 C          62.1721   89.0990   11.7302 C.ar    1  UNL1        0.0251
      3 C          63.0673   88.5592   12.8060 C.ar    1  UNL1        0.0178
      4 C          63.8303   89.2322   13.9082 C.ar    1  UNL1        0.0126
      5 C          64.5584   88.1731   14.6816 C.ar    1  UNL1        0.0732
      6 N          64.2453   86.8456   14.0574 N.ar    1  UNL1       -0.3208
      7 C          63.3237   87.0842   12.8982 C.ar    1  UNL1        0.0793
      8 C          62.6850   86.1490   11.9147 C.ar    1  UNL1        0.1161
      9 N          61.7898   86.6888   10.8390 N.ar    1  UNL1       -0.2377
     10 C          59.3705   88.3803    7.4263 C.3     1  UNL1        0.1482
     11 N          60.2658   87.8405    8.5020 N.am    1  UNL1       -0.1653
     12 O          60.7887   86.4377    8.4087 O.3     1  UNL1       -0.2915
     13 C          60.6381   88.7035    9.6710 C.2     1  UNL1        0.2887
     14 O          60.1152   90.1063    9.7642 O.2     1  UNL1       -0.2662
     15 H          60.4552   86.0215    7.5985 H       1  UNL1        0.2417
     16 C          63.8601   90.7056   14.1879 C.3     1  UNL1        0.1010
     17 N          64.7531   91.6037   13.3841 N.3     1  UNL1       -0.2627
     18 C          64.5926   91.9341   11.9297 C.3     1  UNL1        0.0728
     19 C          65.7036   92.8636   11.5402 C.3     1  UNL1        0.0192
     20 C          66.5508   93.1076   12.7539 C.3     1  UNL1        0.0268
     21 C          65.9633   92.3289   13.8934 C.3     1  UNL1        0.1348
     22 C          66.4930   92.2834   15.2960 C.2     1  UNL1        0.2339
     23 N          65.6654   92.8164   16.4279 N.am    1  UNL1       -0.3277
     24 O          67.8502   91.7050   15.5668 O.2     1  UNL1       -0.2739
     25 H          64.7746   93.1960   16.2502 H       1  UNL1        0.1450
     26 H          66.0130   92.7865   17.3485 H       1  UNL1        0.1450
     27 C          64.7629   85.5133   14.5125 C.3     1  UNL1        0.1328
     28 C          64.0343   84.2573   14.1361 C.ar    1  UNL1        0.0005
     29 C          64.5093   83.4338   12.9758 C.ar    1  UNL1       -0.0001
     30 C          63.7808   82.1778   12.5994 C.ar    1  UNL1        0.0294
     31 C          62.5773   81.7452   13.3833 C.ar    1  UNL1        0.1401
     32 F          61.8487   80.4892   13.0069 F       1  UNL1       -0.2042
     33 C          62.1024   82.5686   14.5436 C.ar    1  UNL1        0.0294
     34 C          62.8309   83.8247   14.9200 C.ar    1  UNL1       -0.0001
@<TRIPOS>BOND
     1    10    11    1
     2    11    12    1
     3    11    13   am
     4    13    14    2
     5    13     1    1
     6     1     2   ar
     7     2     3   ar
     8     3     4   ar
     9     4    16    1
    10    16    17    1
    11    17    18    1
    12    18    19    1
    13    19    20    1
    14    20    21    1
    15    21    22    1
    16    22    23   am
    17    22    24    2
    18     4     5   ar
    19     5     6   ar
    20     6    27    1
    21    27    28    1
    22    28    29   ar
    23    29    30   ar
    24    30    31   ar
    25    31    32    1
    26    31    33   ar
    27    33    34   ar
    28     6     7   ar
    29     7     8   ar
    30     8     9   ar
    31     9     1   ar
    32     7     3   ar
    33    21    17    1
    34    34    28   ar
    35    12    15    1
    36    23    25    1
    37    23    26    1
@<TRIPOS>MOLECULE
*****
 34 37 0 0 0
SMALL
GASTEIGER

@<TRIPOS>ATOM
      1 C          63.1029   84.3106   12.9282 C.ar    1  UNL1        0.1368
      2 C          62.4957   85.2797   11.9575 C.ar    1  UNL1        0.0251
      3 C          62.7435   86.7510   12.1124 C.ar    1  UNL1        0.0178
      4 C          62.2819   87.9358   11.3166 C.ar    1  UNL1        0.0126
      5 C          62.8515   89.1702   11.9503 C.ar    1  UNL1        0.0732
      6 N          63.6652   88.7483   13.1378 N.ar    1  UNL1       -0.3208
      7 C          63.5984   87.2532   13.2380 C.ar    1  UNL1        0.0793
      8 C          64.2055   86.2841   14.2086 C.ar    1  UNL1        0.1161
      9 N          63.9578   84.8128   14.0537 N.ar    1  UNL1       -0.2377
     10 C          62.3315   80.5227   13.8264 C.3     1  UNL1        0.1482
     11 N          62.5793   81.9940   13.9812 N.am    1  UNL1       -0.1653
     12 O          62.5511   82.6199   15.3442 O.3     1  UNL1       -0.2915
     13 C          62.8552   82.8394   12.7733 C.2     1  UNL1        0.2887
     14 O          62.8833   82.2135   11.4104 O.2     1  UNL1       -0.2662
     15 H          62.3607   81.9393   16.0086 H       1  UNL1        0.2417
     16 C          61.4047   87.8935   10.1005 C.3     1  UNL1        0.1010
     17 N          61.6253   86.8429    9.0529 N.3     1  UNL1       -0.2627
     18 C          62.8296   85.9567    8.9327 C.3     1  UNL1        0.0728
     19 C          62.6289   85.0602    7.7470 C.3     1  UNL1        0.0192
     20 C          61.3006   85.3922    7.1343 C.3     1  UNL1        0.0268
     21 C          60.6804   86.4940    7.9414 C.3     1  UNL1        0.1348
     22 C          59.3489   87.1346    7.6824 C.2     1  UNL1        0.2339
     23 N          59.2815   88.5255    7.1250 N.am    1  UNL1       -0.3277
     24 O          58.0849   86.3842    7.9809 O.2     1  UNL1       -0.2739
     25 H          60.1112   89.0180    6.9291 H       1  UNL1        0.1450
     26 H          58.4077   88.9460    6.9551 H       1  UNL1        0.1450
     27 C          64.4141   89.6613   14.0628 C.3     1  UNL1        0.1328
     28 C          64.9947   90.9432   13.5436 C.ar    1  UNL1        0.0005
     29 C          66.0385   91.6701   14.3387 C.ar    1  UNL1       -0.0001
     30 C          66.6191   92.9520   13.8196 C.ar    1  UNL1        0.0294
     31 C          66.1561   93.5070   12.5052 C.ar    1  UNL1        0.1401
     32 F          66.7367   94.7890   11.9859 F       1  UNL1       -0.2042
     33 C          65.1123   92.7802   11.7101 C.ar    1  UNL1        0.0294
     34 C          64.5317   91.4982   12.2293 C.ar    1  UNL1       -0.0001
@<TRIPOS>BOND
     1    10    11    1
     2    11    12    1
     3    11    13   am
     4    13    14    2
     5    13     1    1
     6     1     2   ar
     7     2     3   ar
     8     3     4   ar
     9     4    16    1
    10    16    17    1
    11    17    18    1
    12    18    19    1
    13    19    20    1
    14    20    21    1
    15    21    22    1
    16    22    23   am
    17    22    24    2
    18     4     5   ar
    19     5     6   ar
    20     6    27    1
    21    27    28    1
    22    28    29   ar
    23    29    30   ar
    24    30    31   ar
    25    31    32    1
    26    31    33   ar
    27    33    34   ar
    28     6     7   ar
    29     7     8   ar
    30     8     9   ar
    31     9     1   ar
    32     7     3   ar
    33    21    17    1
    34    34    28   ar
    35    12    15    1
    36    23    25    1
    37    23    26    1
@<TRIPOS>MOLECULE
*****
 34 37 0 0 0
SMALL
GASTEIGER

@<TRIPOS>ATOM
      1 C          64.2318   91.3520   12.1217 C.ar    1  UNL1        0.1368
      2 C          64.3192   90.0620   12.8820 C.ar    1  UNL1        0.0251
      3 C          63.4695   88.8939   12.4774 C.ar    1  UNL1        0.0178
      4 C          63.3406   87.5064   13.0328 C.ar    1  UNL1        0.0126
      5 C          62.3238   86.7710   12.2111 C.ar    1  UNL1        0.0732
      6 N          61.8243   87.7039   11.1479 N.ar    1  UNL1       -0.3208
      7 C          62.5324   89.0159   11.3125 C.ar    1  UNL1        0.0793
      8 C          62.4450   90.3060   10.5523 C.ar    1  UNL1        0.1161
      9 N          63.2947   91.4740   10.9569 N.ar    1  UNL1       -0.2377
     10 C          66.3731   94.6861   11.9020 C.3     1  UNL1        0.1482
     11 N          65.5234   93.5181   11.4974 N.am    1  UNL1       -0.1653
     12 O          65.1157   93.3481   10.0639 O.3     1  UNL1       -0.2915
     13 C          65.0815   92.5201   12.5263 C.2     1  UNL1        0.2887
     14 O          65.4893   92.6901   13.9597 O.2     1  UNL1       -0.2662
     15 H          65.4824   94.0739    9.5352 H       1  UNL1        0.2417
     16 C          64.0958   86.9518   14.2041 C.3     1  UNL1        0.1010
     17 N          63.9008   85.5220   14.6133 N.3     1  UNL1       -0.2627
     18 C          64.4702   84.3206   13.9185 C.3     1  UNL1        0.0728
     19 C          64.0235   83.0985   14.6648 C.3     1  UNL1        0.0192
     20 C          63.1780   83.5446   15.8208 C.3     1  UNL1        0.0268
     21 C          63.1022   85.0423   15.7889 C.3     1  UNL1        0.1348
     22 C          62.3583   85.9084   16.7619 C.2     1  UNL1        0.2339
     23 N          63.1135   86.7288   17.7652 N.am    1  UNL1       -0.3277
     24 O          60.8594   85.9542   16.7314 O.2     1  UNL1       -0.2739
     25 H          64.0974   86.6987   17.7852 H       1  UNL1        0.1450
     26 H          62.6253   87.2973   18.4038 H       1  UNL1        0.1450
     27 C          60.7971   87.3814   10.1035 C.3     1  UNL1        0.1328
     28 C          61.1574   86.5008    8.9439 C.ar    1  UNL1        0.0005
     29 C          62.5465   85.9474    8.8255 C.ar    1  UNL1       -0.0001
     30 C          62.9068   85.0668    7.6659 C.ar    1  UNL1        0.0294
     31 C          61.8779   84.7395    6.6246 C.ar    1  UNL1        0.1401
     32 F          62.2381   83.8589    5.4650 F       1  UNL1       -0.2042
     33 C          60.4888   85.2929    6.7430 C.ar    1  UNL1        0.0294
     34 C          60.1285   86.1735    7.9026 C.ar    1  UNL1       -0.0001
@<TRIPOS>BOND
     1    10    11    1
     2    11    12    1
     3    11    13   am
     4    13    14    2
     5    13     1    1
     6     1     2   ar
     7     2     3   ar
     8     3     4   ar
     9     4    16    1
    10    16    17    1
    11    17    18    1
    12    18    19    1
    13    19    20    1
    14    20    21    1
    15    21    22    1
    16    22    23   am
    17    22    24    2
    18     4     5   ar
    19     5     6   ar
    20     6    27    1
    21    27    28    1
    22    28    29   ar
    23    29    30   ar
    24    30    31   ar
    25    31    32    1
    26    31    33   ar
    27    33    34   ar
    28     6     7   ar
    29     7     8   ar
    30     8     9   ar
    31     9     1   ar
    32     7     3   ar
    33    21    17    1
    34    34    28   ar
    35    12    15    1
    36    23    25    1
    37    23    26    1
@<TRIPOS>MOLECULE
*****
 34 37 0 0 0
SMALL
GASTEIGER

@<TRIPOS>ATOM
      1 C          61.5743   87.4957   10.0243 C.ar    1  UNL1        0.1368
      2 C          62.0887   88.6872   10.7765 C.ar    1  UNL1        0.0251
      3 C          62.8755   88.4947   12.0390 C.ar    1  UNL1        0.0178
      4 C          63.5058   89.4710   12.9875 C.ar    1  UNL1        0.0126
      5 C          64.1677   88.6904   14.0841 C.ar    1  UNL1        0.0732
      6 N          63.9465   87.2317   13.8133 N.ar    1  UNL1       -0.3208
      7 C          63.1479   87.1108   12.5493 C.ar    1  UNL1        0.0793
      8 C          62.6335   85.9193   11.7972 C.ar    1  UNL1        0.1161
      9 N          61.8467   86.1118   10.5347 N.ar    1  UNL1       -0.2377
     10 C          59.3704   89.2092    7.2036 C.3     1  UNL1        0.1482
     11 N          60.1572   89.0167    8.4661 N.am    1  UNL1       -0.1653
     12 O          60.3136   90.1529    9.4329 O.3     1  UNL1       -0.2915
     13 C          60.7875   87.6882    8.7618 C.2     1  UNL1        0.2887
     14 O          60.6311   86.5521    7.7950 O.2     1  UNL1       -0.2662
     15 H          59.8484   90.9333    9.0928 H       1  UNL1        0.2417
     16 C          63.4788   90.9655   12.8616 C.3     1  UNL1        0.1010
     17 N          64.6373   91.6866   12.2387 N.3     1  UNL1       -0.2627
     18 C          64.7486   92.0999   10.8009 C.3     1  UNL1        0.0728
     19 C          66.0678   92.7898   10.6178 C.3     1  UNL1        0.0192
     20 C          66.7719   92.8029   11.9423 C.3     1  UNL1        0.0268
     21 C          65.8878   92.1212   12.9440 C.3     1  UNL1        0.1348
     22 C          66.1993   91.9108   14.3962 C.2     1  UNL1        0.2339
     23 N          67.5254   91.3403   14.8037 N.am    1  UNL1       -0.3277
     24 O          65.1848   92.2709   15.4407 O.2     1  UNL1       -0.2739
     25 H          68.1912   91.1039   14.1181 H       1  UNL1        0.1450
     26 H          67.7299   91.2022   15.7568 H       1  UNL1        0.1450
     27 C          64.4377   86.0937   14.6581 C.3     1  UNL1        0.1328
     28 C          63.9789   84.6946   14.3718 C.ar    1  UNL1        0.0005
     29 C          62.7508   84.1557   15.0436 C.ar    1  UNL1       -0.0001
     30 C          62.2921   82.7566   14.7574 C.ar    1  UNL1        0.0294
     31 C          63.0614   81.8963   13.7993 C.ar    1  UNL1        0.1401
     32 F          62.6027   80.4971   13.5129 F       1  UNL1       -0.2042
     33 C          64.2895   82.4351   13.1274 C.ar    1  UNL1        0.0294
     34 C          64.7483   83.8343   13.4137 C.ar    1  UNL1       -0.0001
@<TRIPOS>BOND
     1    10    11    1
     2    11    12    1
     3    11    13   am
     4    13    14    2
     5    13     1    1
     6     1     2   ar
     7     2     3   ar
     8     3     4   ar
     9     4    16    1
    10    16    17    1
    11    17    18    1
    12    18    19    1
    13    19    20    1
    14    20    21    1
    15    21    22    1
    16    22    23   am
    17    22    24    2
    18     4     5   ar
    19     5     6   ar
    20     6    27    1
    21    27    28    1
    22    28    29   ar
    23    29    30   ar
    24    30    31   ar
    25    31    32    1
    26    31    33   ar
    27    33    34   ar
    28     6     7   ar
    29     7     8   ar
    30     8     9   ar
    31     9     1   ar
    32     7     3   ar
    33    21    17    1
    34    34    28   ar
    35    12    15    1
    36    23    25    1
    37    23    26    1
