@<TRIPOS>MOLECULE
*****
 29 32 0 0 0
SMALL
GASTEIGER

@<TRIPOS>ATOM
      1 C          64.2485   91.1235   12.5205 C.ar    1  UNL1        0.0785
      2 C          63.4207   90.3432   11.5428 C.ar    1  UNL1        0.0183
      3 C          63.1405   88.8903   11.7890 C.ar    1  UNL1        0.0168
      4 C          63.6880   88.2178   13.0128 C.ar    1  UNL1        0.0636
      5 C          64.5158   88.9981   13.9905 C.ar    1  UNL1        0.0462
      6 C          64.7960   90.4510   13.7443 C.ar    1  UNL1        0.1547
      7 F          65.6239   91.2313   14.7220 F       1  UNL1       -0.2028
      8 N          63.4078   86.7649   13.2590 N.am    1  UNL1       -0.2010
      9 C          63.4727   86.0668   14.5851 C.2     1  UNL1        0.2589
     10 O          63.8293   86.6989   15.8978 O.2     1  UNL1       -0.2691
     11 C          63.1185   84.6254   14.3680 C.ar    1  UNL1        0.0587
     12 C          63.0177   83.4636   15.3113 C.ar    1  UNL1        0.0055
     13 C          62.6331   82.1090   14.7944 C.ar    1  UNL1        0.0115
     14 C          62.3492   81.9164   13.3341 C.ar    1  UNL1        0.0578
     15 CL         61.9646   80.5617   12.8172 Cl      1  UNL1       -0.0822
     16 C          62.4500   83.0782   12.3908 C.ar    1  UNL1        0.0161
     17 C          62.8346   84.4328   12.9077 C.ar    1  UNL1        0.0595
     18 C          63.0134   85.7550   12.2224 C.2     1  UNL1        0.2589
     19 O          62.8300   86.0207   10.7575 O.2     1  UNL1       -0.2691
     20 C          65.8418   92.9974   11.6840 C.2     1  UNL1        0.2840
     21 O          66.8747   91.9656   11.3397 O.2     1  UNL1       -0.2665
     22 N          64.5287   92.5764   12.2743 N.am    1  UNL1       -0.2761
     23 H          63.8508   93.2537   12.5002 H       1  UNL1        0.1553
     24 C          67.2177   94.2589    9.0072 C.3     1  UNL1        0.0345
     25 C          66.7545   95.0301   10.2073 C.ar    1  UNL1        0.0204
     26 C          66.8423   96.5167   10.3880 C.ar    1  UNL1        0.0396
     27 C          66.2642   96.8556   11.7299 C.ar    1  UNL1        0.1795
     28 O          65.8190   95.5785   12.3787 O.2     1  UNL1       -0.4461
     29 C          66.1220   94.4503   11.4378 C.ar    1  UNL1        0.1948
@<TRIPOS>BOND
     1    24    25    1
     2    25    26   ar
     3    26    27   ar
     4    27    28   ar
     5    28    29   ar
     6    29    20    1
     7    20    21    2
     8    20    22   am
     9    22     1    1
    10     1     2   ar
    11     2     3   ar
    12     3     4   ar
    13     4     8    1
    14     8     9   am
    15     9    10    2
    16     9    11    1
    17    11    12   ar
    18    12    13   ar
    19    13    14   ar
    20    14    15    1
    21    14    16   ar
    22    16    17   ar
    23    17    18    1
    24    18    19    2
    25     4     5   ar
    26     5     6   ar
    27     6     7    1
    28    29    25   ar
    29     6     1   ar
    30    18     8   am
    31    17    11   ar
    32    22    23    1
@<TRIPOS>MOLECULE
*****
 29 32 0 0 0
SMALL
GASTEIGER

@<TRIPOS>ATOM
      1 C          64.1511   91.1222   12.4280 C.ar    1  UNL1        0.0785
      2 C          64.5751   90.3514   13.6429 C.ar    1  UNL1        0.0183
      3 C          64.2821   88.8835   13.7399 C.ar    1  UNL1        0.0168
      4 C          63.5651   88.1864   12.6219 C.ar    1  UNL1        0.0636
      5 C          63.1412   88.9571   11.4070 C.ar    1  UNL1        0.0462
      6 C          63.4342   90.4250   11.3100 C.ar    1  UNL1        0.1547
      7 F          63.0102   91.1958   10.0949 F       1  UNL1       -0.2028
      8 N          63.2721   86.7185   12.7189 N.am    1  UNL1       -0.2010
      9 C          62.8103   85.8356   11.5977 C.2     1  UNL1        0.2589
     10 O          62.5604   86.2656   10.1825 O.2     1  UNL1       -0.2691
     11 C          62.6423   84.4472   12.1400 C.ar    1  UNL1        0.0587
     12 C          62.2095   83.1636   11.4957 C.ar    1  UNL1        0.0055
     13 C          62.1348   81.9048   12.3079 C.ar    1  UNL1        0.0115
     14 C          62.4928   81.9295   13.7644 C.ar    1  UNL1        0.0578
     15 CL         62.4180   80.6706   14.5766 Cl      1  UNL1       -0.0822
     16 C          62.9255   83.2131   14.4086 C.ar    1  UNL1        0.0161
     17 C          63.0003   84.4720   13.5964 C.ar    1  UNL1        0.0595
     18 C          63.3895   85.8757   13.9542 C.2     1  UNL1        0.2589
     19 O          63.8205   86.3528   15.3094 O.2     1  UNL1       -0.2691
     20 C          65.7639   93.0575   11.7928 C.2     1  UNL1        0.2840
     21 O          66.7908   92.0570   11.3515 O.2     1  UNL1       -0.2665
     22 N          64.4441   92.5901   12.3310 N.am    1  UNL1       -0.2761
     23 H          63.7702   93.2468   12.6206 H       1  UNL1        0.1553
     24 C          66.5357   94.6837    9.0708 C.3     1  UNL1        0.0345
     25 C          66.4117   95.2729   10.4446 C.ar    1  UNL1        0.0204
     26 C          66.6206   96.7130   10.8085 C.ar    1  UNL1        0.0396
     27 C          66.3949   96.8556   12.2846 C.ar    1  UNL1        0.1795
     28 O          66.0466   95.5036   12.8329 O.2     1  UNL1       -0.4461
     29 C          66.0569   94.5254   11.6958 C.ar    1  UNL1        0.1948
@<TRIPOS>BOND
     1    24    25    1
     2    25    26   ar
     3    26    27   ar
     4    27    28   ar
     5    28    29   ar
     6    29    20    1
     7    20    21    2
     8    20    22   am
     9    22     1    1
    10     1     2   ar
    11     2     3   ar
    12     3     4   ar
    13     4     8    1
    14     8     9   am
    15     9    10    2
    16     9    11    1
    17    11    12   ar
    18    12    13   ar
    19    13    14   ar
    20    14    15    1
    21    14    16   ar
    22    16    17   ar
    23    17    18    1
    24    18    19    2
    25     4     5   ar
    26     5     6   ar
    27     6     7    1
    28    29    25   ar
    29     6     1   ar
    30    18     8   am
    31    17    11   ar
    32    22    23    1
@<TRIPOS>MOLECULE
*****
 29 32 0 0 0
SMALL
GASTEIGER

@<TRIPOS>ATOM
      1 C          62.7848   86.5617   12.9321 C.ar    1  UNL1        0.0785
      2 C          63.7070   87.1444   13.9616 C.ar    1  UNL1        0.0183
      3 C          64.2575   88.5276   13.7783 C.ar    1  UNL1        0.0168
      4 C          63.8857   89.3282   12.5655 C.ar    1  UNL1        0.0636
      5 C          62.9634   88.7455   11.5361 C.ar    1  UNL1        0.0462
      6 C          62.4129   87.3622   11.7194 C.ar    1  UNL1        0.1547
      7 F          61.4906   86.7795   10.6899 F       1  UNL1       -0.2028
      8 N          64.4361   90.7114   12.3822 N.am    1  UNL1       -0.2010
      9 C          65.2362   91.4827   13.3897 C.2     1  UNL1        0.2589
     10 O          65.6263   91.0061   14.7574 O.2     1  UNL1       -0.2691
     11 C          65.5777   92.8142   12.7894 C.ar    1  UNL1        0.0587
     12 C          66.3489   93.9863   13.3199 C.ar    1  UNL1        0.0055
     13 C          66.5311   95.2100   12.4719 C.ar    1  UNL1        0.0115
     14 C          65.9421   95.2617   11.0933 C.ar    1  UNL1        0.0578
     15 CL         66.1243   96.4856   10.2453 Cl      1  UNL1       -0.0822
     16 C          65.1709   94.0897   10.5628 C.ar    1  UNL1        0.0161
     17 C          64.9887   92.8659   11.4108 C.ar    1  UNL1        0.0595
     18 C          64.2832   91.5663   11.1592 C.2     1  UNL1        0.2589
     19 O          63.5529   91.1881    9.9048 O.2     1  UNL1       -0.2691
     20 C          63.1592   83.9975   13.1191 C.2     1  UNL1        0.2840
     21 O          64.6346   84.1999   12.9393 O.2     1  UNL1       -0.2665
     22 N          62.2343   85.1784   13.1155 N.am    1  UNL1       -0.2761
     23 H          61.2660   85.0456   13.2334 H       1  UNL1        0.1553
     24 C          63.4213   81.5320   10.9973 C.3     1  UNL1        0.0345
     25 C          62.7293   81.4810   12.3271 C.ar    1  UNL1        0.0204
     26 C          62.0361   80.2877   12.9151 C.ar    1  UNL1        0.0396
     27 C          61.4872   80.6836   14.2538 C.ar    1  UNL1        0.1795
     28 O          61.8411   82.1214   14.4931 O.2     1  UNL1       -0.4461
     29 C          62.6087   82.6143   13.3024 C.ar    1  UNL1        0.1948
@<TRIPOS>BOND
     1    24    25    1
     2    25    26   ar
     3    26    27   ar
     4    27    28   ar
     5    28    29   ar
     6    29    20    1
     7    20    21    2
     8    20    22   am
     9    22     1    1
    10     1     2   ar
    11     2     3   ar
    12     3     4   ar
    13     4     8    1
    14     8     9   am
    15     9    10    2
    16     9    11    1
    17    11    12   ar
    18    12    13   ar
    19    13    14   ar
    20    14    15    1
    21    14    16   ar
    22    16    17   ar
    23    17    18    1
    24    18    19    2
    25     4     5   ar
    26     5     6   ar
    27     6     7    1
    28    29    25   ar
    29     6     1   ar
    30    18     8   am
    31    17    11   ar
    32    22    23    1
