@<TRIPOS>MOLECULE
*****
 39 44 0 0 0
SMALL
GASTEIGER

@<TRIPOS>ATOM
      1 O          58.2342   87.4591    6.9678 O.2     1  UNL1       -0.2749
      2 C          59.2241   88.5525    7.2409 C.2     1  UNL1        0.2252
      3 N          60.1141   88.4745    8.4458 N.am    1  UNL1       -0.2794
      4 C          60.0142   87.3032    9.3775 C.3     1  UNL1        0.0953
      5 C          60.9042   87.2253   10.5824 C.3     1  UNL1        0.0442
      6 C          61.8942   88.3187   10.8556 C.3     1  UNL1        0.0933
      7 C          61.9941   89.4899    9.9239 C.3     1  UNL1        0.0442
      8 C          61.1040   89.5678    8.7190 C.3     1  UNL1        0.0953
      9 N          62.7842   88.2408   12.0605 N.ar    1  UNL1       -0.2817
     10 C          63.1302   86.9956   12.8220 C.ar    1  UNL1        0.3315
     11 O          62.6470   85.6098   12.5123 O.2     1  UNL1       -0.2463
     12 N          64.0444   87.3796   13.9476 N.ar    1  UNL1       -0.2785
     13 C          64.2633   88.8621   13.8817 C.ar    1  UNL1        0.0797
     14 C          65.0712   89.7961   14.7331 C.ar    1  UNL1        0.0188
     15 C          65.1003   91.2624   14.4181 C.ar    1  UNL1        0.0016
     16 C          64.3215   91.7946   13.2518 C.ar    1  UNL1        0.0016
     17 C          63.5136   90.8606   12.4005 C.ar    1  UNL1        0.0188
     18 C          63.4845   89.3943   12.7154 C.ar    1  UNL1        0.0796
     19 C          64.6357   86.4452   14.9611 C.3     1  UNL1        0.1278
     20 C          63.7843   85.3798   15.5857 C.3     1  UNL1        0.0972
     21 N          63.5570   84.0835   14.8659 N.3     1  UNL1       -0.2668
     22 C          62.3131   83.2877   15.1291 C.3     1  UNL1        0.1047
     23 C          62.0859   81.9914   14.4093 C.3     1  UNL1        0.1595
     24 O          63.1025   81.4911   13.4264 O.3     1  UNL1       -0.3508
     25 C          64.3464   82.2869   13.1632 C.3     1  UNL1        0.1595
     26 C          64.5736   83.5832   13.8830 C.3     1  UNL1        0.1047
     27 C          59.3240   89.7237    6.3092 C.3     1  UNL1        0.0795
     28 C          58.0967   90.5139    5.9636 C.3     1  UNL1        0.0264
     29 C          58.1966   91.6852    5.0319 C.3     1  UNL1        0.0729
     30 N          59.5238   92.0663    4.4458 N.3     1  UNL1       -0.2689
     31 C          60.7511   91.2760    4.7914 C.3     1  UNL1        0.0729
     32 C          60.6512   90.1048    5.7231 C.3     1  UNL1        0.0264
     33 C          59.6237   93.2376    3.5140 C.3     1  UNL1        0.0992
     34 C          60.2202   93.0615    2.1491 C.ar    1  UNL1       -0.0031
     35 C          59.3384   92.7255    0.9830 C.ar    1  UNL1        0.0178
     36 C          59.9349   92.5494   -0.3820 C.ar    1  UNL1        0.0986
     37 N          61.4130   92.7092   -0.5809 N.ar    1  UNL1       -0.2423
     38 C          62.2947   93.0451    0.5852 C.ar    1  UNL1        0.0986
     39 C          61.6983   93.2213    1.9502 C.ar    1  UNL1        0.0178
@<TRIPOS>BOND
     1     1     2    2
     2     2    27    1
     3    27    28    1
     4    28    29    1
     5    29    30    1
     6    30    33    1
     7    33    34    1
     8    34    35   ar
     9    35    36   ar
    10    36    37   ar
    11    37    38   ar
    12    38    39   ar
    13    30    31    1
    14    31    32    1
    15     2     3   am
    16     3     4    1
    17     4     5    1
    18     5     6    1
    19     6     9    1
    20     9    10   ar
    21    10    11    2
    22    10    12   ar
    23    12    19    1
    24    19    20    1
    25    20    21    1
    26    21    22    1
    27    22    23    1
    28    23    24    1
    29    24    25    1
    30    25    26    1
    31    12    13   ar
    32    13    14   ar
    33    14    15   ar
    34    15    16   ar
    35    16    17   ar
    36    17    18   ar
    37     6     7    1
    38     7     8    1
    39    32    27    1
    40     8     3    1
    41    39    34   ar
    42    18     9   ar
    43    26    21    1
    44    18    13   ar
@<TRIPOS>MOLECULE
*****
 39 44 0 0 0
SMALL
GASTEIGER

@<TRIPOS>ATOM
      1 O          58.3270   87.3885    7.0565 O.2     1  UNL1       -0.2749
      2 C          59.2674   88.5251    7.3276 C.2     1  UNL1        0.2252
      3 N          60.1381   88.5030    8.5489 N.am    1  UNL1       -0.2794
      4 C          60.0683   87.3442    9.4988 C.3     1  UNL1        0.0953
      5 C          60.9391   87.3221   10.7201 C.3     1  UNL1        0.0442
      6 C          61.8796   88.4588   10.9913 C.3     1  UNL1        0.0933
      7 C          61.9493   89.6174   10.0414 C.3     1  UNL1        0.0442
      8 C          61.0786   89.6396    8.8201 C.3     1  UNL1        0.0953
      9 N          62.7503   88.4366   12.2126 N.ar    1  UNL1       -0.2817
     10 C          63.2286   89.6358   12.9762 C.ar    1  UNL1        0.3315
     11 O          62.9201   91.0677   12.6528 O.2     1  UNL1       -0.2463
     12 N          64.0695   89.1517   14.1201 N.ar    1  UNL1       -0.2785
     13 C          64.1109   87.6533   14.0634 C.ar    1  UNL1        0.0797
     14 C          64.7856   86.6343   14.9330 C.ar    1  UNL1        0.0188
     15 C          64.6451   85.1733   14.6236 C.ar    1  UNL1        0.0016
     16 C          63.8298   84.7314   13.4446 C.ar    1  UNL1        0.0016
     17 C          63.1551   85.7504   12.5751 C.ar    1  UNL1        0.0188
     18 C          63.2956   87.2114   12.8845 C.ar    1  UNL1        0.0796
     19 C          64.7495   90.0144   15.1415 C.3     1  UNL1        0.1278
     20 C          65.0404   91.4535   14.8337 C.3     1  UNL1        0.0972
     21 N          66.4600   91.9319   14.7568 N.3     1  UNL1       -0.2668
     22 C          67.0761   92.6428   15.9251 C.3     1  UNL1        0.1047
     23 C          68.4956   93.1213   15.8482 C.3     1  UNL1        0.1595
     24 O          69.2991   92.8887   14.6031 O.3     1  UNL1       -0.3508
     25 C          68.6830   92.1778   13.4348 C.3     1  UNL1        0.1595
     26 C          67.2634   91.6994   13.5117 C.3     1  UNL1        0.1047
     27 C          59.3372   89.6838    6.3777 C.3     1  UNL1        0.0795
     28 C          60.6473   90.0646    5.7542 C.3     1  UNL1        0.0264
     29 C          60.7171   91.2233    4.8042 C.3     1  UNL1        0.0729
     30 N          59.4768   92.0013    4.4777 N.3     1  UNL1       -0.2689
     31 C          58.1667   91.6205    5.1013 C.3     1  UNL1        0.0729
     32 C          58.0969   90.4618    6.0513 C.3     1  UNL1        0.0264
     33 C          59.5466   93.1600    3.5278 C.3     1  UNL1        0.0992
     34 C          60.2189   92.9991    2.1966 C.ar    1  UNL1       -0.0031
     35 C          61.7137   93.0749    2.0973 C.ar    1  UNL1        0.0178
     36 C          62.3860   92.9140    0.7661 C.ar    1  UNL1        0.0986
     37 N          61.5636   92.6774   -0.4658 N.ar    1  UNL1       -0.2423
     38 C          60.0688   92.6016   -0.3665 C.ar    1  UNL1        0.0986
     39 C          59.3964   92.7625    0.9647 C.ar    1  UNL1        0.0178
@<TRIPOS>BOND
     1     1     2    2
     2     2    27    1
     3    27    28    1
     4    28    29    1
     5    29    30    1
     6    30    33    1
     7    33    34    1
     8    34    35   ar
     9    35    36   ar
    10    36    37   ar
    11    37    38   ar
    12    38    39   ar
    13    30    31    1
    14    31    32    1
    15     2     3   am
    16     3     4    1
    17     4     5    1
    18     5     6    1
    19     6     9    1
    20     9    10   ar
    21    10    11    2
    22    10    12   ar
    23    12    19    1
    24    19    20    1
    25    20    21    1
    26    21    22    1
    27    22    23    1
    28    23    24    1
    29    24    25    1
    30    25    26    1
    31    12    13   ar
    32    13    14   ar
    33    14    15   ar
    34    15    16   ar
    35    16    17   ar
    36    17    18   ar
    37     6     7    1
    38     7     8    1
    39    32    27    1
    40     8     3    1
    41    39    34   ar
    42    18     9   ar
    43    26    21    1
    44    18    13   ar
@<TRIPOS>MOLECULE
*****
 39 44 0 0 0
SMALL
GASTEIGER

@<TRIPOS>ATOM
      1 O          61.9710   86.2227   18.0384 O.2     1  UNL1       -0.2749
      2 C          62.7249   86.1565   16.7433 C.2     1  UNL1        0.2252
      3 N          63.2954   87.4072   16.1430 N.am    1  UNL1       -0.2794
      4 C          63.1119   88.7239   16.8377 C.3     1  UNL1        0.0953
      5 C          63.6825   89.9745   16.2374 C.3     1  UNL1        0.0442
      6 C          64.4365   89.9084   14.9422 C.3     1  UNL1        0.0933
      7 C          64.6199   88.5917   14.2476 C.3     1  UNL1        0.0442
      8 C          64.0494   87.3411   14.8480 C.3     1  UNL1        0.0953
      9 N          65.0070   91.1591   14.3419 N.ar    1  UNL1       -0.2817
     10 C          64.5495   91.8164   13.0736 C.ar    1  UNL1        0.3315
     11 O          63.4411   91.3386   12.1829 O.2     1  UNL1       -0.2463
     12 N          65.3949   93.0355   12.8523 N.ar    1  UNL1       -0.2785
     13 C          66.3749   93.1317   13.9839 C.ar    1  UNL1        0.0797
     14 C          67.4546   94.1254   14.2949 C.ar    1  UNL1        0.0188
     15 C          68.2945   93.9593   15.5265 C.ar    1  UNL1        0.0016
     16 C          68.0548   92.7996   16.4471 C.ar    1  UNL1        0.0016
     17 C          66.9751   91.8059   16.1361 C.ar    1  UNL1        0.0188
     18 C          66.1352   91.9719   14.9045 C.ar    1  UNL1        0.0796
     19 C          65.2805   93.9909   11.7016 C.3     1  UNL1        0.1278
     20 C          66.5160   94.5943   11.1020 C.3     1  UNL1        0.0972
     21 N          67.3003   93.8326   10.0750 N.3     1  UNL1       -0.2668
     22 C          67.6886   94.4938    8.7859 C.3     1  UNL1        0.1047
     23 C          68.4729   93.7321    7.7589 C.3     1  UNL1        0.1595
     24 O          68.8688   92.3092    8.0211 O.3     1  UNL1       -0.3508
     25 C          68.4805   91.6480    9.3103 C.3     1  UNL1        0.1595
     26 C          67.6962   92.4098   10.3373 C.3     1  UNL1        0.1047
     27 C          62.9084   84.8398   16.0487 C.3     1  UNL1        0.0795
     28 C          61.7141   84.0848   15.5448 C.3     1  UNL1        0.0264
     29 C          61.8976   82.7681   14.8501 C.3     1  UNL1        0.0729
     30 N          63.2753   82.2064   14.6593 N.3     1  UNL1       -0.2689
     31 C          64.4696   82.9614   15.1631 C.3     1  UNL1        0.0729
     32 C          64.2861   84.2781   15.8578 C.3     1  UNL1        0.0264
     33 C          63.4587   80.8897   13.9646 C.3     1  UNL1        0.0992
     34 C          63.3390   80.8062   12.4717 C.ar    1  UNL1       -0.0031
     35 C          62.8046   79.5597   11.8308 C.ar    1  UNL1        0.0178
     36 C          62.6848   79.4761   10.3380 C.ar    1  UNL1        0.0986
     37 N          63.0994   80.6390    9.4860 N.ar    1  UNL1       -0.2423
     38 C          63.6337   81.8854   10.1269 C.ar    1  UNL1        0.0986
     39 C          63.7535   81.9690   11.6198 C.ar    1  UNL1        0.0178
@<TRIPOS>BOND
     1     1     2    2
     2     2    27    1
     3    27    28    1
     4    28    29    1
     5    29    30    1
     6    30    33    1
     7    33    34    1
     8    34    35   ar
     9    35    36   ar
    10    36    37   ar
    11    37    38   ar
    12    38    39   ar
    13    30    31    1
    14    31    32    1
    15     2     3   am
    16     3     4    1
    17     4     5    1
    18     5     6    1
    19     6     9    1
    20     9    10   ar
    21    10    11    2
    22    10    12   ar
    23    12    19    1
    24    19    20    1
    25    20    21    1
    26    21    22    1
    27    22    23    1
    28    23    24    1
    29    24    25    1
    30    25    26    1
    31    12    13   ar
    32    13    14   ar
    33    14    15   ar
    34    15    16   ar
    35    16    17   ar
    36    17    18   ar
    37     6     7    1
    38     7     8    1
    39    32    27    1
    40     8     3    1
    41    39    34   ar
    42    18     9   ar
    43    26    21    1
    44    18    13   ar
@<TRIPOS>MOLECULE
*****
 39 44 0 0 0
SMALL
GASTEIGER

@<TRIPOS>ATOM
      1 O          58.8265   87.6934    7.4676 O.2     1  UNL1       -0.2749
      2 C          59.5525   89.0053    7.5066 C.2     1  UNL1        0.2252
      3 N          60.3932   89.3622    8.6965 N.am    1  UNL1       -0.2794
      4 C          60.5078   88.4071    9.8474 C.3     1  UNL1        0.0953
      5 C          61.3485   88.7640   11.0373 C.3     1  UNL1        0.0442
      6 C          62.0745   90.0761   11.0763 C.3     1  UNL1        0.0933
      7 C          61.9599   91.0311    9.9254 C.3     1  UNL1        0.0442
      8 C          61.1192   90.6742    8.7355 C.3     1  UNL1        0.0953
      9 N          62.9152   90.4329   12.2663 N.ar    1  UNL1       -0.2817
     10 C          62.6093   90.0948   13.6952 C.ar    1  UNL1        0.3315
     11 O          61.4090   89.3403   14.1852 O.2     1  UNL1       -0.2463
     12 N          63.7144   90.6435   14.5482 N.ar    1  UNL1       -0.2785
     13 C          64.7033   91.3208   13.6464 C.ar    1  UNL1        0.0797
     14 C          65.9898   92.0392   13.9272 C.ar    1  UNL1        0.0188
     15 C          66.7823   92.6275   12.7977 C.ar    1  UNL1        0.0016
     16 C          66.2883   92.4974   11.3874 C.ar    1  UNL1        0.0016
     17 C          65.0019   91.7790   11.1065 C.ar    1  UNL1        0.0188
     18 C          64.2094   91.1907   12.2360 C.ar    1  UNL1        0.0796
     19 C          63.8133   90.5341   16.0409 C.3     1  UNL1        0.1278
     20 C          63.0653   89.4541   16.7650 C.3     1  UNL1        0.0972
     21 N          63.3300   88.0132   16.4430 N.3     1  UNL1       -0.2668
     22 C          64.2467   87.6538   15.3114 C.3     1  UNL1        0.1047
     23 C          64.5114   86.2129   14.9893 C.3     1  UNL1        0.1595
     24 O          63.8594   85.1314   15.7989 O.3     1  UNL1       -0.3508
     25 C          62.9428   85.4908   16.9305 C.3     1  UNL1        0.1595
     26 C          62.6781   86.9317   17.2525 C.3     1  UNL1        0.1047
     27 C          59.4379   89.9604    6.3556 C.3     1  UNL1        0.0795
     28 C          58.0988   90.5191    5.9752 C.3     1  UNL1        0.0264
     29 C          57.9842   91.4742    4.8243 C.3     1  UNL1        0.0729
     30 N          59.2086   91.8706    4.0538 N.3     1  UNL1       -0.2689
     31 C          60.5477   91.3119    4.4343 C.3     1  UNL1        0.0729
     32 C          60.6624   90.3568    5.5852 C.3     1  UNL1        0.0264
     33 C          59.0940   92.8257    2.9029 C.3     1  UNL1        0.0992
     34 C          60.2237   92.9615    1.9255 C.ar    1  UNL1       -0.0031
     35 C          61.4153   93.8053    2.2691 C.ar    1  UNL1        0.0178
     36 C          62.5450   93.9411    1.2918 C.ar    1  UNL1        0.0986
     37 N          62.4832   93.2332   -0.0292 N.ar    1  UNL1       -0.2423
     38 C          61.2915   92.3894   -0.3728 C.ar    1  UNL1        0.0986
     39 C          60.1618   92.2535    0.6046 C.ar    1  UNL1        0.0178
@<TRIPOS>BOND
     1     1     2    2
     2     2    27    1
     3    27    28    1
     4    28    29    1
     5    29    30    1
     6    30    33    1
     7    33    34    1
     8    34    35   ar
     9    35    36   ar
    10    36    37   ar
    11    37    38   ar
    12    38    39   ar
    13    30    31    1
    14    31    32    1
    15     2     3   am
    16     3     4    1
    17     4     5    1
    18     5     6    1
    19     6     9    1
    20     9    10   ar
    21    10    11    2
    22    10    12   ar
    23    12    19    1
    24    19    20    1
    25    20    21    1
    26    21    22    1
    27    22    23    1
    28    23    24    1
    29    24    25    1
    30    25    26    1
    31    12    13   ar
    32    13    14   ar
    33    14    15   ar
    34    15    16   ar
    35    16    17   ar
    36    17    18   ar
    37     6     7    1
    38     7     8    1
    39    32    27    1
    40     8     3    1
    41    39    34   ar
    42    18     9   ar
    43    26    21    1
    44    18    13   ar
@<TRIPOS>MOLECULE
*****
 39 44 0 0 0
SMALL
GASTEIGER

@<TRIPOS>ATOM
      1 O          62.4112   86.1594   18.1602 O.2     1  UNL1       -0.2749
      2 C          62.8857   86.0244   16.7437 C.2     1  UNL1        0.2252
      3 N          63.3422   87.2365   15.9870 N.am    1  UNL1       -0.2794
      4 C          63.3241   88.5834   16.6469 C.3     1  UNL1        0.0953
      5 C          63.7806   89.7955   15.8903 C.3     1  UNL1        0.0442
      6 C          64.2552   89.6606   14.4737 C.3     1  UNL1        0.0933
      7 C          64.2733   88.3137   13.8139 C.3     1  UNL1        0.0442
      8 C          63.8168   87.1017   14.5705 C.3     1  UNL1        0.0953
      9 N          64.7117   90.8727   13.7170 N.ar    1  UNL1       -0.2817
     10 C          65.6743   91.9108   14.2128 C.ar    1  UNL1        0.3315
     11 O          66.3494   91.9191   15.5523 O.2     1  UNL1       -0.2463
     12 N          65.8432   92.9391   13.1340 N.ar    1  UNL1       -0.2785
     13 C          64.9851   92.5366   11.9714 C.ar    1  UNL1        0.0797
     14 C          64.7501   93.1680   10.6312 C.ar    1  UNL1        0.0188
     15 C          63.8159   92.5222    9.6514 C.ar    1  UNL1        0.0016
     16 C          63.1166   91.2450   10.0118 C.ar    1  UNL1        0.0016
     17 C          63.3515   90.6137   11.3519 C.ar    1  UNL1        0.0188
     18 C          64.2858   91.2594   12.3317 C.ar    1  UNL1        0.0796
     19 C          66.7169   94.1563   13.2051 C.3     1  UNL1        0.1278
     20 C          66.3656   95.3793   12.4106 C.3     1  UNL1        0.0972
     21 N          66.7865   95.4874   10.9749 N.3     1  UNL1       -0.2668
     22 C          67.5720   94.3794   10.3382 C.3     1  UNL1        0.1047
     23 C          67.9929   94.4876    8.9025 C.3     1  UNL1        0.1595
     24 O          67.6283   95.7036    8.1036 O.3     1  UNL1       -0.3508
     25 C          66.8428   96.8116    8.7403 C.3     1  UNL1        0.1595
     26 C          66.4219   96.7034   10.1760 C.3     1  UNL1        0.1047
     27 C          62.9038   84.6775   16.0838 C.3     1  UNL1        0.0795
     28 C          64.1910   83.9160   15.9686 C.3     1  UNL1        0.0264
     29 C          64.2091   82.5691   15.3087 C.3     1  UNL1        0.0729
     30 N          62.9400   81.9837   14.7640 N.3     1  UNL1       -0.2689
     31 C          61.6528   82.7453   14.8791 C.3     1  UNL1        0.0729
     32 C          61.6347   84.0922   15.5390 C.3     1  UNL1        0.0264
     33 C          62.9581   80.6368   14.1041 C.3     1  UNL1        0.0992
     34 C          62.9845   80.5349   12.6078 C.ar    1  UNL1       -0.0031
     35 C          63.3323   81.7367   11.7804 C.ar    1  UNL1        0.0178
     36 C          63.3587   81.6349   10.2841 C.ar    1  UNL1        0.0986
     37 N          63.0373   80.3313    9.6152 N.ar    1  UNL1       -0.2423
     38 C          62.6895   79.1295   10.4427 C.ar    1  UNL1        0.0986
     39 C          62.6631   79.2313   11.9390 C.ar    1  UNL1        0.0178
@<TRIPOS>BOND
     1     1     2    2
     2     2    27    1
     3    27    28    1
     4    28    29    1
     5    29    30    1
     6    30    33    1
     7    33    34    1
     8    34    35   ar
     9    35    36   ar
    10    36    37   ar
    11    37    38   ar
    12    38    39   ar
    13    30    31    1
    14    31    32    1
    15     2     3   am
    16     3     4    1
    17     4     5    1
    18     5     6    1
    19     6     9    1
    20     9    10   ar
    21    10    11    2
    22    10    12   ar
    23    12    19    1
    24    19    20    1
    25    20    21    1
    26    21    22    1
    27    22    23    1
    28    23    24    1
    29    24    25    1
    30    25    26    1
    31    12    13   ar
    32    13    14   ar
    33    14    15   ar
    34    15    16   ar
    35    16    17   ar
    36    17    18   ar
    37     6     7    1
    38     7     8    1
    39    32    27    1
    40     8     3    1
    41    39    34   ar
    42    18     9   ar
    43    26    21    1
    44    18    13   ar
