@<TRIPOS>MOLECULE
*****
 42 47 0 0 0
SMALL
GASTEIGER

@<TRIPOS>ATOM
      1 C          61.0012   92.1799    3.0339 C.ar    1  UNL1        0.0481
      2 C          59.5681   92.5097    3.3302 C.ar    1  UNL1        0.0176
      3 C          58.9034   91.9387    4.5476 C.ar    1  UNL1        0.0382
      4 C          59.6717   91.0380    5.4687 C.ar    1  UNL1        0.1388
      5 C          61.1047   90.7083    5.1725 C.ar    1  UNL1        0.0382
      6 C          61.7695   91.2792    3.9550 C.ar    1  UNL1        0.0176
      7 N          62.9954   93.8928   -0.6184 N.3     1  UNL1       -0.1560
      8 C          63.7177   93.8845    0.6963 C.3     1  UNL1        0.1168
      9 C          63.0530   93.3136    1.9137 C.3     1  UNL1        0.1099
     10 N          61.6659   92.7509    1.8165 N.pl3   1  UNL1       -0.3045
     11 C          60.9436   92.7592    0.5019 C.3     1  UNL1        0.1099
     12 C          61.6083   93.3301   -0.7156 C.3     1  UNL1        0.1168
     13 O          62.7445   93.6614   -2.7120 O.2     1  UNL1       -0.1573
     14 S          63.6601   94.4638   -1.8358 S.O2    1  UNL1        0.0424
     15 O          64.5757   95.2662   -0.9595 O.2     1  UNL1       -0.1573
     16 C          64.3249   95.0348   -3.0532 C.3     1  UNL1        0.1508
     17 C          65.2271   96.2263   -2.9258 C.3     1  UNL1        0.0573
     18 C          65.8918   96.7973   -4.1432 C.3     1  UNL1        0.1440
     19 O          65.6543   96.1767   -5.4880 O.3     1  UNL1       -0.3537
     20 C          64.7522   94.9852   -5.6154 C.3     1  UNL1        0.1440
     21 C          64.0874   94.4142   -4.3980 C.3     1  UNL1        0.0573
     22 O          59.0070   90.4670    6.6861 O.3     1  UNL1       -0.4727
     23 C          58.6218   89.0177    6.7202 C.3     1  UNL1        0.2374
     24 C          59.4323   88.0450    7.5245 C.3     1  UNL1        0.1909
     25 C          59.1715   86.5733    7.6517 C.3     1  UNL1        0.1783
     26 O          60.2239   85.9919    8.5487 O.3     1  UNL1       -0.3267
     27 C          61.1351   87.1043    8.9758 C.3     1  UNL1        0.2296
     28 O          60.6458   88.3732    8.3428 O.3     1  UNL1       -0.3255
     29 C          61.8459   86.0206    9.7311 C.ar    1  UNL1        0.0409
     30 C          61.6176   85.8599   11.2048 C.ar    1  UNL1        0.0022
     31 C          62.3284   84.7762   11.9601 C.ar    1  UNL1        0.0113
     32 C          63.2676   83.8534   11.2416 C.ar    1  UNL1        0.0585
     33 CL         63.9784   82.7698   11.9968 Cl      1  UNL1       -0.0822
     34 C          63.4960   84.0141    9.7678 C.ar    1  UNL1        0.0226
     35 C          62.7851   85.0978    9.0126 C.ar    1  UNL1        0.0591
     36 CL         63.0135   85.2586    7.5387 Cl      1  UNL1       -0.0824
     37 C          62.1948   87.9901    9.5608 C.3     1  UNL1        0.1682
     38 N          61.9278   88.7400   10.8321 N.ar    1  UNL1       -0.3025
     39 C          62.9649   89.2836   11.7696 C.ar    1  UNL1        0.0982
     40 C          62.2548   89.9575   12.9061 C.ar    1  UNL1        0.1193
     41 N          60.7788   89.8304   12.6710 N.ar    1  UNL1       -0.2223
     42 C          60.5767   89.0779   11.3892 C.ar    1  UNL1        0.1788
@<TRIPOS>BOND
     1    13    14    2
     2    14    15    2
     3    14    16    1
     4    16    17    1
     5    17    18    1
     6    18    19    1
     7    19    20    1
     8    20    21    1
     9    14     7    1
    10     7     8    1
    11     8     9    1
    12     9    10    1
    13    10     1    1
    14     1     2   ar
    15     2     3   ar
    16     3     4   ar
    17     4    22    1
    18    22    23    1
    19    24    23    1
    20    24    25    1
    21    25    26    1
    22    26    27    1
    23    27    37    1
    24    37    38    1
    25    38    39   ar
    26    39    40   ar
    27    40    41   ar
    28    41    42   ar
    29    27    29    1
    30    29    30   ar
    31    30    31   ar
    32    31    32   ar
    33    32    33    1
    34    32    34   ar
    35    34    35   ar
    36    35    36    1
    37    27    28    1
    38     4     5   ar
    39     5     6   ar
    40    10    11    1
    41    11    12    1
    42    21    16    1
    43    12     7    1
    44     6     1   ar
    45    28    24    1
    46    42    38   ar
    47    35    29   ar
@<TRIPOS>MOLECULE
*****
 42 47 0 0 0
SMALL
GASTEIGER

@<TRIPOS>ATOM
      1 C          60.3828   91.9198    3.5172 C.ar    1  UNL1        0.0481
      2 C          61.2689   91.0461    4.3548 C.ar    1  UNL1        0.0176
      3 C          60.7091   90.3410    5.5546 C.ar    1  UNL1        0.0382
      4 C          59.2633   90.5096    5.9168 C.ar    1  UNL1        0.1388
      5 C          58.3772   91.3832    5.0793 C.ar    1  UNL1        0.0382
      6 C          58.9369   92.0884    3.8794 C.ar    1  UNL1        0.0176
      7 N          62.0620   94.0352   -0.0821 N.3     1  UNL1       -0.1560
      8 C          60.5808   93.8380    0.0486 C.3     1  UNL1        0.1168
      9 C          60.0210   93.1329    1.2484 C.3     1  UNL1        0.1099
     10 N          60.9425   92.6250    2.3174 N.pl3   1  UNL1       -0.3045
     11 C          62.4237   92.8221    2.1867 C.3     1  UNL1        0.1099
     12 C          62.9835   93.5273    0.9869 C.3     1  UNL1        0.1168
     13 O          63.1505   95.8288   -0.3955 O.2     1  UNL1       -0.1573
     14 S          62.6218   94.7403   -1.2819 S.O2    1  UNL1        0.0424
     15 O          62.0931   93.6519   -2.1682 O.2     1  UNL1       -0.1573
     16 C          63.1815   95.4455   -2.4817 C.3     1  UNL1        0.1508
     17 C          62.2574   95.9936   -3.5284 C.3     1  UNL1        0.0573
     18 C          62.8172   96.6987   -4.7281 C.3     1  UNL1        0.1440
     19 O          64.3011   96.8556   -4.8813 O.3     1  UNL1       -0.3537
     20 C          65.2252   96.3074   -3.8346 C.3     1  UNL1        0.1440
     21 C          64.6654   95.6024   -2.6349 C.3     1  UNL1        0.0573
     22 O          58.7036   89.8044    7.1165 O.3     1  UNL1       -0.4727
     23 C          59.4532   89.8244    8.4157 C.3     1  UNL1        0.2374
     24 C          60.1683   88.5933    8.8879 C.3     1  UNL1        0.1909
     25 C          60.0812   87.2304    8.2674 C.3     1  UNL1        0.1783
     26 O          60.9550   86.3037    9.0596 O.3     1  UNL1       -0.3267
     27 C          61.5822   87.0939   10.1698 C.3     1  UNL1        0.2296
     28 O          61.0959   88.5089   10.0636 O.3     1  UNL1       -0.3255
     29 C          62.2279   85.7869   10.5234 C.ar    1  UNL1        0.0409
     30 C          62.0671   85.2199   11.9028 C.ar    1  UNL1        0.0022
     31 C          62.7127   83.9130   12.2564 C.ar    1  UNL1        0.0113
     32 C          63.5191   83.1730   11.2307 C.ar    1  UNL1        0.0585
     33 CL         64.1647   81.8661   11.5843 Cl      1  UNL1       -0.0822
     34 C          63.6799   83.7399    9.8513 C.ar    1  UNL1        0.0226
     35 C          63.0342   85.0469    9.4977 C.ar    1  UNL1        0.0591
     36 CL         63.1950   85.6139    8.1182 Cl      1  UNL1       -0.0824
     37 C          62.3443   87.6108   11.3538 C.3     1  UNL1        0.1682
     38 N          62.7786   89.0458   11.3979 N.ar    1  UNL1       -0.3025
     39 C          63.0674   89.9165   10.2111 C.ar    1  UNL1        0.0982
     40 C          63.4676   91.2710   10.7164 C.ar    1  UNL1        0.1193
     41 N          63.4262   91.2374   12.2154 N.ar    1  UNL1       -0.2223
     42 C          63.0004   89.8622   12.6367 C.ar    1  UNL1        0.1788
@<TRIPOS>BOND
     1    13    14    2
     2    14    15    2
     3    14    16    1
     4    16    17    1
     5    17    18    1
     6    18    19    1
     7    19    20    1
     8    20    21    1
     9    14     7    1
    10     7     8    1
    11     8     9    1
    12     9    10    1
    13    10     1    1
    14     1     2   ar
    15     2     3   ar
    16     3     4   ar
    17     4    22    1
    18    22    23    1
    19    24    23    1
    20    24    25    1
    21    25    26    1
    22    26    27    1
    23    27    37    1
    24    37    38    1
    25    38    39   ar
    26    39    40   ar
    27    40    41   ar
    28    41    42   ar
    29    27    29    1
    30    29    30   ar
    31    30    31   ar
    32    31    32   ar
    33    32    33    1
    34    32    34   ar
    35    34    35   ar
    36    35    36    1
    37    27    28    1
    38     4     5   ar
    39     5     6   ar
    40    10    11    1
    41    11    12    1
    42    21    16    1
    43    12     7    1
    44     6     1   ar
    45    28    24    1
    46    42    38   ar
    47    35    29   ar
@<TRIPOS>MOLECULE
*****
 42 47 0 0 0
SMALL
GASTEIGER

@<TRIPOS>ATOM
      1 C          60.6073   92.3213    3.0603 C.ar    1  UNL1        0.0481
      2 C          61.4690   91.4967    3.9701 C.ar    1  UNL1        0.0176
      3 C          60.8748   90.8568    5.1896 C.ar    1  UNL1        0.0382
      4 C          59.4188   91.0414    5.4995 C.ar    1  UNL1        0.1388
      5 C          58.5571   91.8659    4.5898 C.ar    1  UNL1        0.0382
      6 C          59.1513   92.5058    3.3702 C.ar    1  UNL1        0.0176
      7 N          62.3900   94.2410   -0.5984 N.3     1  UNL1       -0.1560
      8 C          60.9003   94.1830   -0.4322 C.3     1  UNL1        0.1168
      9 C          60.3061   93.5431    0.7873 C.3     1  UNL1        0.1099
     10 N          61.2015   92.9612    1.8408 N.pl3   1  UNL1       -0.3045
     11 C          62.6911   93.0192    1.6746 C.3     1  UNL1        0.1099
     12 C          63.2854   93.6592    0.4550 C.3     1  UNL1        0.1168
     13 O          61.6915   95.5983   -2.0714 O.2     1  UNL1       -0.1573
     14 S          62.9842   94.8810   -1.8180 S.O2    1  UNL1        0.0424
     15 O          64.2769   94.1636   -1.5645 O.2     1  UNL1       -0.1573
     16 C          63.5785   95.5209   -3.0376 C.3     1  UNL1        0.1508
     17 C          62.7639   95.6473   -4.2907 C.3     1  UNL1        0.0573
     18 C          63.3582   96.2872   -5.5102 C.3     1  UNL1        0.1440
     19 O          64.7671   96.8007   -5.4766 O.3     1  UNL1       -0.3537
     20 C          65.5818   96.6743   -4.2235 C.3     1  UNL1        0.1440
     21 C          64.9875   96.0344   -3.0040 C.3     1  UNL1        0.0573
     22 O          58.8246   90.4015    6.7191 O.3     1  UNL1       -0.4727
     23 C          59.0767   88.9502    7.0029 C.3     1  UNL1        0.2374
     24 C          59.8654   88.5489    8.2141 C.3     1  UNL1        0.1909
     25 C          59.6770   89.0794    9.6044 C.3     1  UNL1        0.1783
     26 O          60.6761   88.4050   10.4972 O.3     1  UNL1       -0.3267
     27 C          61.4819   87.4576    9.6585 C.3     1  UNL1        0.2296
     28 O          60.9808   87.5466    8.2475 O.3     1  UNL1       -0.3255
     29 C          62.1820   87.1574   10.9507 C.ar    1  UNL1        0.0409
     30 C          62.1741   85.7623   11.5016 C.ar    1  UNL1        0.0022
     31 C          62.8743   85.4622   12.7938 C.ar    1  UNL1        0.0113
     32 C          63.5823   86.5572   13.5350 C.ar    1  UNL1        0.0585
     33 CL         64.2824   86.2571   14.8272 Cl      1  UNL1       -0.0822
     34 C          63.5903   87.9524   12.9842 C.ar    1  UNL1        0.0226
     35 C          62.8901   88.2525   11.6921 C.ar    1  UNL1        0.0591
     36 CL         62.8980   89.6477   11.1411 Cl      1  UNL1       -0.0824
     37 C          62.4340   86.4475    9.0900 C.3     1  UNL1        0.1682
     38 N          62.0238   85.6072    7.9172 N.ar    1  UNL1       -0.3025
     39 C          62.9497   84.8948    6.9762 C.ar    1  UNL1        0.0982
     40 C          62.1138   84.1791    5.9569 C.ar    1  UNL1        0.1193
     41 N          60.6714   84.4491    6.2678 N.ar    1  UNL1       -0.2223
     42 C          60.6158   85.3317    7.4794 C.ar    1  UNL1        0.1788
@<TRIPOS>BOND
     1    13    14    2
     2    14    15    2
     3    14    16    1
     4    16    17    1
     5    17    18    1
     6    18    19    1
     7    19    20    1
     8    20    21    1
     9    14     7    1
    10     7     8    1
    11     8     9    1
    12     9    10    1
    13    10     1    1
    14     1     2   ar
    15     2     3   ar
    16     3     4   ar
    17     4    22    1
    18    22    23    1
    19    24    23    1
    20    24    25    1
    21    25    26    1
    22    26    27    1
    23    27    37    1
    24    37    38    1
    25    38    39   ar
    26    39    40   ar
    27    40    41   ar
    28    41    42   ar
    29    27    29    1
    30    29    30   ar
    31    30    31   ar
    32    31    32   ar
    33    32    33    1
    34    32    34   ar
    35    34    35   ar
    36    35    36    1
    37    27    28    1
    38     4     5   ar
    39     5     6   ar
    40    10    11    1
    41    11    12    1
    42    21    16    1
    43    12     7    1
    44     6     1   ar
    45    28    24    1
    46    42    38   ar
    47    35    29   ar
@<TRIPOS>MOLECULE
*****
 42 47 0 0 0
SMALL
GASTEIGER

@<TRIPOS>ATOM
      1 C          63.8337   87.7592   14.9582 C.ar    1  UNL1        0.0481
      2 C          64.7442   88.7697   14.3258 C.ar    1  UNL1        0.0176
      3 C          64.9153   90.1215   14.9530 C.ar    1  UNL1        0.0382
      4 C          64.1759   90.4628   16.2126 C.ar    1  UNL1        0.1388
      5 C          63.2654   89.4524   16.8451 C.ar    1  UNL1        0.0382
      6 C          63.0943   88.1005   16.2179 C.ar    1  UNL1        0.0176
      7 N          63.3205   83.7038   13.0766 N.3     1  UNL1       -0.1560
      8 C          63.0345   84.9421   12.2797 C.3     1  UNL1        0.1168
      9 C          63.2055   86.2938   12.9069 C.3     1  UNL1        0.1099
     10 N          63.6626   86.4074   14.3310 N.pl3   1  UNL1       -0.3045
     11 C          63.9487   85.1693   15.1280 C.3     1  UNL1        0.1099
     12 C          63.7776   83.8174   14.5008 C.3     1  UNL1        0.1168
     13 O          64.2316   82.6734   11.4617 O.2     1  UNL1       -0.1573
     14 S          63.1494   82.3521   12.4494 S.O2    1  UNL1        0.0424
     15 O          62.0673   82.0307   13.4372 O.2     1  UNL1       -0.1573
     16 C          62.9783   81.0002   11.8222 C.3     1  UNL1        0.1508
     17 C          63.1610   80.8311   10.3431 C.3     1  UNL1        0.0573
     18 C          62.9899   79.4794    9.7159 C.3     1  UNL1        0.1440
     19 O          62.6361   78.2966   10.5680 O.3     1  UNL1       -0.3537
     20 C          62.4534   78.4657   12.0471 C.3     1  UNL1        0.1440
     21 C          62.6246   79.8175   12.6743 C.3     1  UNL1        0.0573
     22 O          64.3469   91.8146   16.8399 O.3     1  UNL1       -0.4727
     23 C          65.5855   92.6161   16.5683 C.3     1  UNL1        0.2374
     24 C          66.1153   92.7271   15.1694 C.3     1  UNL1        0.1909
     25 C          67.5560   92.6340   14.7623 C.3     1  UNL1        0.1783
     26 O          67.6285   92.8001   13.2733 O.3     1  UNL1       -0.3267
     27 C          66.2326   92.9959   12.7602 C.3     1  UNL1        0.2296
     28 O          65.2974   92.9508   13.9321 O.3     1  UNL1       -0.3255
     29 C          66.9054   93.0859   11.4225 C.ar    1  UNL1        0.0409
     30 C          67.6115   91.8898   10.8561 C.ar    1  UNL1        0.0022
     31 C          68.2843   91.9798    9.5185 C.ar    1  UNL1        0.0113
     32 C          68.2510   93.2659    8.7473 C.ar    1  UNL1        0.0585
     33 CL         68.9237   93.3559    7.4097 Cl      1  UNL1       -0.0822
     34 C          67.5449   94.4620    9.3136 C.ar    1  UNL1        0.0226
     35 C          66.8721   94.3720   10.6512 C.ar    1  UNL1        0.0591
     36 CL         66.1660   95.5681   11.2177 Cl      1  UNL1       -0.0824
     37 C          64.9774   93.2105   11.9674 C.3     1  UNL1        0.1682
     38 N          64.1495   92.0347   11.5409 N.ar    1  UNL1       -0.3025
     39 C          63.4798   91.0504   12.4534 C.ar    1  UNL1        0.0982
     40 C          62.7624   90.0441   11.6033 C.ar    1  UNL1        0.1193
     41 N          62.9887   90.4064   10.1654 N.ar    1  UNL1       -0.2223
     42 C          63.8461   91.6367   10.1268 C.ar    1  UNL1        0.1788
@<TRIPOS>BOND
     1    13    14    2
     2    14    15    2
     3    14    16    1
     4    16    17    1
     5    17    18    1
     6    18    19    1
     7    19    20    1
     8    20    21    1
     9    14     7    1
    10     7     8    1
    11     8     9    1
    12     9    10    1
    13    10     1    1
    14     1     2   ar
    15     2     3   ar
    16     3     4   ar
    17     4    22    1
    18    22    23    1
    19    24    23    1
    20    24    25    1
    21    25    26    1
    22    26    27    1
    23    27    37    1
    24    37    38    1
    25    38    39   ar
    26    39    40   ar
    27    40    41   ar
    28    41    42   ar
    29    27    29    1
    30    29    30   ar
    31    30    31   ar
    32    31    32   ar
    33    32    33    1
    34    32    34   ar
    35    34    35   ar
    36    35    36    1
    37    27    28    1
    38     4     5   ar
    39     5     6   ar
    40    10    11    1
    41    11    12    1
    42    21    16    1
    43    12     7    1
    44     6     1   ar
    45    28    24    1
    46    42    38   ar
    47    35    29   ar
@<TRIPOS>MOLECULE
*****
 42 47 0 0 0
SMALL
GASTEIGER

@<TRIPOS>ATOM
      1 C          60.1278   89.0090    7.5309 C.ar    1  UNL1        0.0481
      2 C          61.0214   89.9260    6.7495 C.ar    1  UNL1        0.0176
      3 C          60.4457   90.7947    5.6707 C.ar    1  UNL1        0.0382
      4 C          58.9762   90.7464    5.3732 C.ar    1  UNL1        0.1388
      5 C          58.0826   89.8295    6.1546 C.ar    1  UNL1        0.0382
      6 C          58.6584   88.9607    7.2335 C.ar    1  UNL1        0.0176
      7 N          61.8552   86.4030   10.7674 N.3     1  UNL1       -0.1560
      8 C          61.1958   85.7784    9.5735 C.3     1  UNL1        0.1168
      9 C          60.6201   86.6471    8.4947 C.3     1  UNL1        0.1099
     10 N          60.7036   88.1403    8.6097 N.pl3   1  UNL1       -0.3045
     11 C          61.3628   88.7649    9.8035 C.3     1  UNL1        0.1099
     12 C          61.9386   87.8962   10.8824 C.3     1  UNL1        0.1168
     13 O          62.8989   86.7559   12.5801 O.2     1  UNL1       -0.1573
     14 S          62.4309   85.5343   11.8462 S.O2    1  UNL1        0.0424
     15 O          61.9630   84.3127   11.1123 O.2     1  UNL1       -0.1573
     16 C          63.0067   84.6655   12.9250 C.3     1  UNL1        0.1508
     17 C          62.7465   83.1883   12.9172 C.3     1  UNL1        0.0573
     18 C          63.3223   82.3197   13.9960 C.3     1  UNL1        0.1440
     19 O          64.1583   82.9282   15.0826 O.3     1  UNL1       -0.3537
     20 C          64.4185   84.4054   15.0904 C.3     1  UNL1        0.1440
     21 C          63.8427   85.2741   14.0116 C.3     1  UNL1        0.0573
     22 O          58.4005   91.6151    4.2944 O.3     1  UNL1       -0.4727
     23 C          58.9877   92.9696    4.0289 C.3     1  UNL1        0.2374
     24 C          59.8720   93.1829    2.8362 C.3     1  UNL1        0.1909
     25 C          61.2675   92.6590    2.6683 C.3     1  UNL1        0.1783
     26 O          61.7741   93.1099    1.3304 O.3     1  UNL1       -0.3267
     27 C          60.6917   93.9126    0.6714 C.3     1  UNL1        0.2296
     28 O          59.5162   93.9577    1.6021 O.3     1  UNL1       -0.3255
     29 C          61.6843   94.0409   -0.4459 C.ar    1  UNL1        0.0409
     30 C          61.6109   93.1157   -1.6243 C.ar    1  UNL1        0.0022
     31 C          62.6035   93.2440   -2.7415 C.ar    1  UNL1        0.0113
     32 C          63.6695   94.2975   -2.6804 C.ar    1  UNL1        0.0585
     33 CL         64.6621   94.4258   -3.7976 Cl      1  UNL1       -0.0822
     34 C          63.7429   95.2228   -1.5020 C.ar    1  UNL1        0.0226
     35 C          62.7503   95.0944   -0.3848 C.ar    1  UNL1        0.0591
     36 CL         62.8237   96.0197    0.7937 Cl      1  UNL1       -0.0824
     37 C          59.8168   94.7421   -0.2211 C.3     1  UNL1        0.1682
     38 N          58.4705   94.2292   -0.6386 N.ar    1  UNL1       -0.3025
     39 C          57.2963   95.0673   -1.0493 C.ar    1  UNL1        0.0982
     40 C          56.1621   94.1442   -1.3832 C.ar    1  UNL1        0.1193
     41 N          56.6353   92.7355   -1.1788 N.ar    1  UNL1       -0.2223
     42 C          58.0620   92.7881   -0.7186 C.ar    1  UNL1        0.1788
@<TRIPOS>BOND
     1    13    14    2
     2    14    15    2
     3    14    16    1
     4    16    17    1
     5    17    18    1
     6    18    19    1
     7    19    20    1
     8    20    21    1
     9    14     7    1
    10     7     8    1
    11     8     9    1
    12     9    10    1
    13    10     1    1
    14     1     2   ar
    15     2     3   ar
    16     3     4   ar
    17     4    22    1
    18    22    23    1
    19    24    23    1
    20    24    25    1
    21    25    26    1
    22    26    27    1
    23    27    37    1
    24    37    38    1
    25    38    39   ar
    26    39    40   ar
    27    40    41   ar
    28    41    42   ar
    29    27    29    1
    30    29    30   ar
    31    30    31   ar
    32    31    32   ar
    33    32    33    1
    34    32    34   ar
    35    34    35   ar
    36    35    36    1
    37    27    28    1
    38     4     5   ar
    39     5     6   ar
    40    10    11    1
    41    11    12    1
    42    21    16    1
    43    12     7    1
    44     6     1   ar
    45    28    24    1
    46    42    38   ar
    47    35    29   ar
@<TRIPOS>MOLECULE
*****
 42 47 0 0 0
SMALL
GASTEIGER

@<TRIPOS>ATOM
      1 C          60.0069   89.4436    6.8052 C.ar    1  UNL1        0.0481
      2 C          60.9862   90.1909    5.9492 C.ar    1  UNL1        0.0176
      3 C          60.4930   91.1694    4.9250 C.ar    1  UNL1        0.0382
      4 C          59.0206   91.4008    4.7566 C.ar    1  UNL1        0.1388
      5 C          58.0413   90.6535    5.6125 C.ar    1  UNL1        0.0382
      6 C          58.5345   89.6749    6.6368 C.ar    1  UNL1        0.0176
      7 N          61.4865   86.5078    9.8780 N.3     1  UNL1       -0.1560
      8 C          61.5580   87.9808   10.1524 C.3     1  UNL1        0.1168
      9 C          61.0648   88.9594    9.1282 C.3     1  UNL1        0.1099
     10 N          60.5001   88.4650    7.8294 N.pl3   1  UNL1       -0.3045
     11 C          60.4287   86.9921    7.5549 C.3     1  UNL1        0.1099
     12 C          60.9219   86.0135    8.5792 C.3     1  UNL1        0.1168
     13 O          62.7214   84.7836    9.8327 O.2     1  UNL1       -0.1573
     14 S          61.9797   85.5293   10.9022 S.O2    1  UNL1        0.0424
     15 O          61.2381   86.2749   11.9717 O.2     1  UNL1       -0.1573
     16 C          62.4729   84.5507   11.9265 C.3     1  UNL1        0.1508
     17 C          62.7283   85.0027   13.3338 C.3     1  UNL1        0.0573
     18 C          63.2215   84.0242   14.3580 C.3     1  UNL1        0.1440
     19 O          63.4593   82.5935   13.9750 O.3     1  UNL1       -0.3537
     20 C          63.2039   82.1414   12.5678 C.3     1  UNL1        0.1440
     21 C          62.7107   83.1200   11.5436 C.3     1  UNL1        0.0573
     22 O          58.5274   92.3793    3.7324 O.3     1  UNL1       -0.4727
     23 C          59.4123   93.5038    3.2821 C.3     1  UNL1        0.2374
     24 C          60.0085   93.4840    1.9059 C.3     1  UNL1        0.1909
     25 C          59.7889   92.4265    0.8649 C.3     1  UNL1        0.1783
     26 O          60.5736   92.8072   -0.3554 O.3     1  UNL1       -0.3267
     27 C          61.2782   94.1001   -0.0687 C.3     1  UNL1        0.2296
     28 O          60.9289   94.5183    1.3288 O.3     1  UNL1       -0.3255
     29 C          61.7975   93.9454   -1.4675 C.ar    1  UNL1        0.0409
     30 C          63.1292   93.2976   -1.7057 C.ar    1  UNL1        0.0022
     31 C          63.6485   93.1429   -3.1045 C.ar    1  UNL1        0.0113
     32 C          62.8360   93.6360   -4.2649 C.ar    1  UNL1        0.0585
     33 CL         63.3552   93.4813   -5.6636 Cl      1  UNL1       -0.0822
     34 C          61.5042   94.2837   -4.0267 C.ar    1  UNL1        0.0226
     35 C          60.9849   94.4384   -2.6279 C.ar    1  UNL1        0.0591
     36 CL         59.6531   95.0862   -2.3896 Cl      1  UNL1       -0.0824
     37 C          62.0913   95.3605   -0.0744 C.3     1  UNL1        0.1682
     38 N          63.1864   95.5512    0.9328 N.ar    1  UNL1       -0.3025
     39 C          63.6066   96.8559    1.5420 C.ar    1  UNL1        0.0982
     40 C          64.7335   96.5816    2.4933 C.ar    1  UNL1        0.1193
     41 N          65.0098   95.1074    2.4719 N.ar    1  UNL1       -0.2223
     42 C          64.0536   94.4706    1.5074 C.ar    1  UNL1        0.1788
@<TRIPOS>BOND
     1    13    14    2
     2    14    15    2
     3    14    16    1
     4    16    17    1
     5    17    18    1
     6    18    19    1
     7    19    20    1
     8    20    21    1
     9    14     7    1
    10     7     8    1
    11     8     9    1
    12     9    10    1
    13    10     1    1
    14     1     2   ar
    15     2     3   ar
    16     3     4   ar
    17     4    22    1
    18    22    23    1
    19    24    23    1
    20    24    25    1
    21    25    26    1
    22    26    27    1
    23    27    37    1
    24    37    38    1
    25    38    39   ar
    26    39    40   ar
    27    40    41   ar
    28    41    42   ar
    29    27    29    1
    30    29    30   ar
    31    30    31   ar
    32    31    32   ar
    33    32    33    1
    34    32    34   ar
    35    34    35   ar
    36    35    36    1
    37    27    28    1
    38     4     5   ar
    39     5     6   ar
    40    10    11    1
    41    11    12    1
    42    21    16    1
    43    12     7    1
    44     6     1   ar
    45    28    24    1
    46    42    38   ar
    47    35    29   ar
@<TRIPOS>MOLECULE
*****
 42 47 0 0 0
SMALL
GASTEIGER

@<TRIPOS>ATOM
      1 C          60.0440   89.4902    6.8386 C.ar    1  UNL1        0.0481
      2 C          61.0384   90.2410    6.0034 C.ar    1  UNL1        0.0176
      3 C          60.5635   91.2248    4.9755 C.ar    1  UNL1        0.0382
      4 C          59.0943   91.4578    4.7828 C.ar    1  UNL1        0.1388
      5 C          58.1000   90.7070    5.6180 C.ar    1  UNL1        0.0382
      6 C          58.5748   89.7232    6.6459 C.ar    1  UNL1        0.0176
      7 N          61.4686   86.5388    9.9224 N.3     1  UNL1       -0.1560
      8 C          60.8117   86.0514    8.6650 C.3     1  UNL1        0.1168
      9 C          60.3369   87.0352    7.6371 C.3     1  UNL1        0.1099
     10 N          60.5189   88.5064    7.8665 N.pl3   1  UNL1       -0.3045
     11 C          61.1757   88.9937    9.1239 C.3     1  UNL1        0.1099
     12 C          61.6506   88.0099   10.1519 C.3     1  UNL1        0.1168
     13 O          61.1510   86.2721   12.0028 O.2     1  UNL1       -0.1573
     14 S          61.9435   85.5550   10.9503 S.O2    1  UNL1        0.0424
     15 O          62.7360   84.8379    9.8979 O.2     1  UNL1       -0.1573
     16 C          62.4184   84.5711   11.9782 C.3     1  UNL1        0.1508
     17 C          62.7014   83.1519   11.5836 C.3     1  UNL1        0.0573
     18 C          63.1762   82.1681   12.6115 C.3     1  UNL1        0.1440
     19 O          63.3681   82.6035   14.0340 O.3     1  UNL1       -0.3537
     20 C          63.0851   84.0227   14.4287 C.3     1  UNL1        0.1440
     21 C          62.6103   85.0065   13.4008 C.3     1  UNL1        0.0573
     22 O          58.6195   92.4416    3.7549 O.3     1  UNL1       -0.4727
     23 C          59.4536   93.6442    3.4260 C.3     1  UNL1        0.2374
     24 C          59.9527   93.8509    2.0267 C.3     1  UNL1        0.1909
     25 C          60.8647   94.9504    1.5692 C.3     1  UNL1        0.1783
     26 O          61.1030   94.7734    0.0989 O.3     1  UNL1       -0.3267
     27 C          60.3383   93.5644   -0.3523 C.3     1  UNL1        0.2296
     28 O          59.6273   92.9943    0.8391 O.3     1  UNL1       -0.3255
     29 C          60.9145   93.8964   -1.6970 C.ar    1  UNL1        0.0409
     30 C          62.0725   93.1073   -2.2322 C.ar    1  UNL1        0.0022
     31 C          62.6487   93.4392   -3.5767 C.ar    1  UNL1        0.0113
     32 C          62.0669   94.5602   -4.3860 C.ar    1  UNL1        0.0585
     33 CL         62.6431   94.8921   -5.7305 Cl      1  UNL1       -0.0822
     34 C          60.9090   95.3493   -3.8508 C.ar    1  UNL1        0.0226
     35 C          60.3328   95.0174   -2.5062 C.ar    1  UNL1        0.0591
     36 CL         59.1748   95.8065   -1.9709 Cl      1  UNL1       -0.0824
     37 C          59.6940   92.4249   -1.0847 C.3     1  UNL1        0.1682
     38 N          58.2914   92.5610   -1.5988 N.ar    1  UNL1       -0.3025
     39 C          57.8401   92.3085   -3.0068 C.ar    1  UNL1        0.0982
     40 C          56.3637   92.5649   -3.0733 C.ar    1  UNL1        0.1193
     41 N          55.9025   92.9758   -1.7063 N.ar    1  UNL1       -0.2223
     42 C          57.0940   92.9734   -0.7950 C.ar    1  UNL1        0.1788
@<TRIPOS>BOND
     1    13    14    2
     2    14    15    2
     3    14    16    1
     4    16    17    1
     5    17    18    1
     6    18    19    1
     7    19    20    1
     8    20    21    1
     9    14     7    1
    10     7     8    1
    11     8     9    1
    12     9    10    1
    13    10     1    1
    14     1     2   ar
    15     2     3   ar
    16     3     4   ar
    17     4    22    1
    18    22    23    1
    19    24    23    1
    20    24    25    1
    21    25    26    1
    22    26    27    1
    23    27    37    1
    24    37    38    1
    25    38    39   ar
    26    39    40   ar
    27    40    41   ar
    28    41    42   ar
    29    27    29    1
    30    29    30   ar
    31    30    31   ar
    32    31    32   ar
    33    32    33    1
    34    32    34   ar
    35    34    35   ar
    36    35    36    1
    37    27    28    1
    38     4     5   ar
    39     5     6   ar
    40    10    11    1
    41    11    12    1
    42    21    16    1
    43    12     7    1
    44     6     1   ar
    45    28    24    1
    46    42    38   ar
    47    35    29   ar
