@<TRIPOS>MOLECULE
*****
 29 32 0 0 0
SMALL
GASTEIGER

@<TRIPOS>ATOM
      1 C          63.2298   90.3078   13.5407 C.ar    1  UNL1        0.1361
      2 N          62.0650   89.9097   12.6836 N.ar    1  UNL1       -0.2131
      3 C          62.0056   90.3453   11.2494 C.ar    1  UNL1        0.1714
      4 N          63.1110   91.1790   10.6725 N.ar    1  UNL1       -0.2279
      5 C          64.2759   91.5772   11.5296 C.ar    1  UNL1        0.0854
      6 C          65.3813   92.4109   10.9527 C.ar    1  UNL1        0.0192
      7 C          66.5460   92.8090   11.8098 C.ar    1  UNL1        0.0015
      8 C          66.6054   92.3734   13.2440 C.ar    1  UNL1        0.0002
      9 C          65.5000   91.5397   13.8209 C.ar    1  UNL1        0.0043
     10 C          64.3353   91.1416   12.9638 C.ar    1  UNL1        0.0494
     11 C          60.8408   89.9471   10.3923 C.3     1  UNL1        0.1912
     12 O          59.6149   90.8103   10.3448 O.3     1  UNL1       -0.3730
     13 H          59.7392   91.5804   10.9212 H       1  UNL1        0.2113
     14 C          60.9018   88.6859    9.5827 C.ar    1  UNL1        0.0117
     15 C          59.8110   88.3702    8.6027 C.ar    1  UNL1        0.0008
     16 C          59.8720   87.1089    7.7931 C.ar    1  UNL1        0.0294
     17 C          61.0239   86.1633    7.9635 C.ar    1  UNL1        0.1401
     18 F          61.0850   84.9020    7.1539 F       1  UNL1       -0.2042
     19 C          62.1147   86.4789    8.9436 C.ar    1  UNL1        0.0294
     20 C          62.0536   87.7403    9.7532 C.ar    1  UNL1        0.0008
     21 N          63.2891   89.8722   14.9749 N.pl3   1  UNL1       -0.2819
     22 H          63.1717   90.5328   15.6952 H       1  UNL1        0.1551
     23 C          64.9592   84.8689   14.7338 C.3     1  UNL1        0.0515
     24 C          64.2951   86.1302   15.2006 C.ar    1  UNL1        0.0548
     25 C          64.3163   87.4521   14.4920 C.ar    1  UNL1        0.0502
     26 C          63.5274   88.4300   15.3114 C.ar    1  UNL1        0.1539
     27 N          63.0186   87.7124   16.5264 N.ar    1  UNL1       -0.1577
     28 N          63.4930   86.2911   16.4579 N.ar    1  UNL1       -0.2786
     29 H          63.3101   85.5873   17.1217 H       1  UNL1        0.1886
@<TRIPOS>BOND
     1    23    24    1
     2    24    25   ar
     3    25    26   ar
     4    26    21    1
     5    21     1    1
     6     1     2   ar
     7     2     3   ar
     8     3    11    1
     9    11    12    1
    10    11    14    1
    11    14    15   ar
    12    15    16   ar
    13    16    17   ar
    14    17    18    1
    15    17    19   ar
    16    19    20   ar
    17     3     4   ar
    18     4     5   ar
    19     5     6   ar
    20     6     7   ar
    21     7     8   ar
    22     8     9   ar
    23     9    10   ar
    24    26    27   ar
    25    27    28   ar
    26    28    24   ar
    27    10     1   ar
    28    20    14   ar
    29    10     5   ar
    30    21    22    1
    31    12    13    1
    32    28    29    1
@<TRIPOS>MOLECULE
*****
 29 32 0 0 0
SMALL
GASTEIGER

@<TRIPOS>ATOM
      1 C          62.3134   86.5535   10.8152 C.ar    1  UNL1        0.1361
      2 N          62.8123   87.5472   11.8220 N.ar    1  UNL1       -0.2131
      3 C          62.3111   88.9607   11.7927 C.ar    1  UNL1        0.1714
      4 N          61.3110   89.3805   10.7566 N.ar    1  UNL1       -0.2279
      5 C          60.8121   88.3868    9.7497 C.ar    1  UNL1        0.0854
      6 C          59.8120   88.8066    8.7136 C.ar    1  UNL1        0.0192
      7 C          59.3131   87.8129    7.7068 C.ar    1  UNL1        0.0015
      8 C          59.8143   86.3994    7.7361 C.ar    1  UNL1        0.0002
      9 C          60.8144   85.9796    8.7723 C.ar    1  UNL1        0.0043
     10 C          61.3133   86.9733    9.7790 C.ar    1  UNL1        0.0494
     11 C          62.8100   89.9544   12.7995 C.3     1  UNL1        0.1912
     12 O          62.2655   89.9438   14.1972 O.3     1  UNL1       -0.3730
     13 H          61.6052   89.2382   14.2816 H       1  UNL1        0.2113
     14 C          63.8534   90.9587   12.4087 C.ar    1  UNL1        0.0117
     15 C          64.8384   91.4517   13.4269 C.ar    1  UNL1        0.0008
     16 C          65.8817   92.4560   13.0361 C.ar    1  UNL1        0.0294
     17 C          65.9401   92.9673   11.6271 C.ar    1  UNL1        0.1401
     18 F          66.9835   93.9715   11.2362 F       1  UNL1       -0.2042
     19 C          64.9551   92.4742   10.6089 C.ar    1  UNL1        0.0294
     20 C          63.9117   91.4699   10.9998 C.ar    1  UNL1        0.0008
     21 N          62.8146   85.1400   10.8446 N.pl3   1  UNL1       -0.2819
     22 H          63.2614   84.7597   10.0540 H       1  UNL1        0.1551
     23 C          62.1945   80.9975   14.0594 C.3     1  UNL1        0.0515
     24 C          62.3500   82.4020   13.5560 C.ar    1  UNL1        0.0548
     25 C          62.5154   82.8115   12.1225 C.ar    1  UNL1        0.0502
     26 C          62.6351   84.3061   12.0783 C.ar    1  UNL1        0.1539
     27 N          62.5437   84.8202   13.4845 N.ar    1  UNL1       -0.1577
     28 N          62.3675   83.6434   14.3978 N.ar    1  UNL1       -0.2786
     29 H          62.2790   83.6795   15.3777 H       1  UNL1        0.1886
@<TRIPOS>BOND
     1    23    24    1
     2    24    25   ar
     3    25    26   ar
     4    26    21    1
     5    21     1    1
     6     1     2   ar
     7     2     3   ar
     8     3    11    1
     9    11    12    1
    10    11    14    1
    11    14    15   ar
    12    15    16   ar
    13    16    17   ar
    14    17    18    1
    15    17    19   ar
    16    19    20   ar
    17     3     4   ar
    18     4     5   ar
    19     5     6   ar
    20     6     7   ar
    21     7     8   ar
    22     8     9   ar
    23     9    10   ar
    24    26    27   ar
    25    27    28   ar
    26    28    24   ar
    27    10     1   ar
    28    20    14   ar
    29    10     5   ar
    30    21    22    1
    31    12    13    1
    32    28    29    1
@<TRIPOS>MOLECULE
*****
 29 32 0 0 0
SMALL
GASTEIGER

@<TRIPOS>ATOM
      1 C          61.6352   88.7619   10.9965 C.ar    1  UNL1        0.1361
      2 N          62.3542   87.8297   11.9259 N.ar    1  UNL1       -0.2131
      3 C          62.3353   86.3520   11.6689 C.ar    1  UNL1        0.1714
      4 N          61.5974   85.8065   10.4824 N.ar    1  UNL1       -0.2279
      5 C          60.8784   86.7387    9.5528 C.ar    1  UNL1        0.0854
      6 C          60.1405   86.1933    8.3663 C.ar    1  UNL1        0.0192
      7 C          59.4214   87.1254    7.4368 C.ar    1  UNL1        0.0015
      8 C          59.4403   88.6031    7.6939 C.ar    1  UNL1        0.0002
      9 C          60.1782   89.1486    8.8804 C.ar    1  UNL1        0.0043
     10 C          60.8972   88.2164    9.8099 C.ar    1  UNL1        0.0494
     11 C          63.0544   85.4198   12.5985 C.3     1  UNL1        0.1912
     12 O          63.8564   85.9703   13.7403 O.3     1  UNL1       -0.3730
     13 H          63.8053   86.9389   13.7340 H       1  UNL1        0.2113
     14 C          62.9715   83.9373   12.3861 C.ar    1  UNL1        0.0117
     15 C          63.5075   83.3292   11.1240 C.ar    1  UNL1        0.0008
     16 C          63.4246   81.8467   10.9116 C.ar    1  UNL1        0.0294
     17 C          62.8056   80.9721   11.9615 C.ar    1  UNL1        0.1401
     18 F          62.7227   79.4896   11.7491 F       1  UNL1       -0.2042
     19 C          62.2696   81.5801   13.2236 C.ar    1  UNL1        0.0294
     20 C          62.3526   83.0628   13.4359 C.ar    1  UNL1        0.0008
     21 N          61.6541   90.2396   11.2535 N.pl3   1  UNL1       -0.2819
     22 H          60.8106   90.7472   11.2702 H       1  UNL1        0.1551
     23 C          66.0926   92.9830   10.4451 C.3     1  UNL1        0.0515
     24 C          64.9981   92.2050   11.1136 C.ar    1  UNL1        0.0548
     25 C          63.7788   91.6445   10.4434 C.ar    1  UNL1        0.0502
     26 C          62.9579   90.9440   11.4852 C.ar    1  UNL1        0.1539
     27 N          63.6699   91.0716   12.7993 N.ar    1  UNL1       -0.1577
     28 N          64.9308   91.8509   12.5697 N.ar    1  UNL1       -0.2786
     29 H          65.5971   92.0883   13.2544 H       1  UNL1        0.1886
@<TRIPOS>BOND
     1    23    24    1
     2    24    25   ar
     3    25    26   ar
     4    26    21    1
     5    21     1    1
     6     1     2   ar
     7     2     3   ar
     8     3    11    1
     9    11    12    1
    10    11    14    1
    11    14    15   ar
    12    15    16   ar
    13    16    17   ar
    14    17    18    1
    15    17    19   ar
    16    19    20   ar
    17     3     4   ar
    18     4     5   ar
    19     5     6   ar
    20     6     7   ar
    21     7     8   ar
    22     8     9   ar
    23     9    10   ar
    24    26    27   ar
    25    27    28   ar
    26    28    24   ar
    27    10     1   ar
    28    20    14   ar
    29    10     5   ar
    30    21    22    1
    31    12    13    1
    32    28    29    1
@<TRIPOS>MOLECULE
*****
 29 32 0 0 0
SMALL
GASTEIGER

@<TRIPOS>ATOM
      1 C          62.4655   88.5667   11.4670 C.ar    1  UNL1        0.1361
      2 N          63.0456   87.4777   12.3200 N.ar    1  UNL1       -0.2131
      3 C          62.6980   86.0445   12.0456 C.ar    1  UNL1        0.1714
      4 N          61.7705   85.7004   10.9181 N.ar    1  UNL1       -0.2279
      5 C          61.1904   86.7894   10.0650 C.ar    1  UNL1        0.0854
      6 C          60.2629   86.4452    8.9376 C.ar    1  UNL1        0.0192
      7 C          59.6829   87.5342    8.0846 C.ar    1  UNL1        0.0015
      8 C          60.0304   88.9673    8.3590 C.ar    1  UNL1        0.0002
      9 C          60.9579   89.3115    9.4865 C.ar    1  UNL1        0.0043
     10 C          61.5379   88.2225   10.3395 C.ar    1  UNL1        0.0494
     11 C          63.2781   84.9555   12.8986 C.3     1  UNL1        0.1912
     12 O          64.0065   85.3013   14.1635 O.3     1  UNL1       -0.3730
     13 H          64.0115   86.2642   14.2808 H       1  UNL1        0.2113
     14 C          63.1298   83.5209   12.4868 C.ar    1  UNL1        0.0117
     15 C          62.4360   82.5481   13.3937 C.ar    1  UNL1        0.0008
     16 C          62.2877   81.1134   12.9819 C.ar    1  UNL1        0.0294
     17 C          62.8332   80.6514   11.6631 C.ar    1  UNL1        0.1401
     18 F          62.6848   79.2167   11.2513 F       1  UNL1       -0.2042
     19 C          63.5269   81.6242   10.7562 C.ar    1  UNL1        0.0294
     20 C          63.6752   83.0589   11.1681 C.ar    1  UNL1        0.0008
     21 N          62.8130   89.9998   11.7415 N.pl3   1  UNL1       -0.2819
     22 H          62.6789   90.6812   11.0436 H       1  UNL1        0.1551
     23 C          65.8944   92.0949   15.4826 C.3     1  UNL1        0.0515
     24 C          64.7813   91.3578   14.7987 C.ar    1  UNL1        0.0548
     25 C          64.6068   91.2016   13.3171 C.ar    1  UNL1        0.0502
     26 C          63.3649   90.3948   13.0791 C.ar    1  UNL1        0.1539
     27 N          62.7718   90.0524   14.4136 N.ar    1  UNL1       -0.1577
     28 N          63.6471   90.6475   15.4764 N.ar    1  UNL1       -0.2786
     29 H          63.5026   90.5833   16.4482 H       1  UNL1        0.1886
@<TRIPOS>BOND
     1    23    24    1
     2    24    25   ar
     3    25    26   ar
     4    26    21    1
     5    21     1    1
     6     1     2   ar
     7     2     3   ar
     8     3    11    1
     9    11    12    1
    10    11    14    1
    11    14    15   ar
    12    15    16   ar
    13    16    17   ar
    14    17    18    1
    15    17    19   ar
    16    19    20   ar
    17     3     4   ar
    18     4     5   ar
    19     5     6   ar
    20     6     7   ar
    21     7     8   ar
    22     8     9   ar
    23     9    10   ar
    24    26    27   ar
    25    27    28   ar
    26    28    24   ar
    27    10     1   ar
    28    20    14   ar
    29    10     5   ar
    30    21    22    1
    31    12    13    1
    32    28    29    1
@<TRIPOS>MOLECULE
*****
 29 32 0 0 0
SMALL
GASTEIGER

@<TRIPOS>ATOM
      1 C          63.7568   89.4010   13.6884 C.ar    1  UNL1        0.1361
      2 N          64.1224   88.1390   14.4119 N.ar    1  UNL1       -0.2131
      3 C          63.8102   86.8059   13.7992 C.ar    1  UNL1        0.1714
      4 N          63.1324   86.7349   12.4630 N.ar    1  UNL1       -0.2279
      5 C          62.7667   87.9969   11.7394 C.ar    1  UNL1        0.0854
      6 C          62.0888   87.9259   10.4032 C.ar    1  UNL1        0.0192
      7 C          61.7232   89.1880    9.6798 C.ar    1  UNL1        0.0015
      8 C          62.0354   90.5210   10.2924 C.ar    1  UNL1        0.0002
      9 C          62.7132   90.5921   11.6286 C.ar    1  UNL1        0.0043
     10 C          63.0789   89.3300   12.3521 C.ar    1  UNL1        0.0494
     11 C          64.1759   85.5438   14.5227 C.3     1  UNL1        0.1912
     12 O          64.9672   85.6112   15.7952 O.3     1  UNL1       -0.3730
     13 H          65.1589   86.5380   16.0081 H       1  UNL1        0.2113
     14 C          63.7503   84.2144   13.9738 C.ar    1  UNL1        0.0117
     15 C          64.4697   83.6234   12.7977 C.ar    1  UNL1        0.0008
     16 C          64.0441   82.2940   12.2488 C.ar    1  UNL1        0.0294
     17 C          62.8989   81.5554   12.8759 C.ar    1  UNL1        0.1401
     18 F          62.4733   80.2260   12.3270 F       1  UNL1       -0.2042
     19 C          62.1795   82.1463   14.0520 C.ar    1  UNL1        0.0294
     20 C          62.6052   83.4759   14.6010 C.ar    1  UNL1        0.0008
     21 N          64.0690   90.7341   14.3011 N.pl3   1  UNL1       -0.2819
     22 H          63.4010   91.1843   14.8672 H       1  UNL1        0.1551
     23 C          68.9441   92.6317   15.0174 C.3     1  UNL1        0.0515
     24 C          67.6396   92.2536   14.3805 C.ar    1  UNL1        0.0548
     25 C          66.4950   91.5615   15.0591 C.ar    1  UNL1        0.0502
     26 C          65.3988   91.3814   14.0512 C.ar    1  UNL1        0.1539
     27 N          65.8660   91.9623   12.7495 N.ar    1  UNL1       -0.1577
     28 N          67.2509   92.5014   12.9530 N.ar    1  UNL1       -0.2786
     29 H          67.8071   92.9407   12.2697 H       1  UNL1        0.1886
@<TRIPOS>BOND
     1    23    24    1
     2    24    25   ar
     3    25    26   ar
     4    26    21    1
     5    21     1    1
     6     1     2   ar
     7     2     3   ar
     8     3    11    1
     9    11    12    1
    10    11    14    1
    11    14    15   ar
    12    15    16   ar
    13    16    17   ar
    14    17    18    1
    15    17    19   ar
    16    19    20   ar
    17     3     4   ar
    18     4     5   ar
    19     5     6   ar
    20     6     7   ar
    21     7     8   ar
    22     8     9   ar
    23     9    10   ar
    24    26    27   ar
    25    27    28   ar
    26    28    24   ar
    27    10     1   ar
    28    20    14   ar
    29    10     5   ar
    30    21    22    1
    31    12    13    1
    32    28    29    1
@<TRIPOS>MOLECULE
*****
 29 32 0 0 0
SMALL
GASTEIGER

@<TRIPOS>ATOM
      1 C          63.7300   89.7295   13.1772 C.ar    1  UNL1        0.1361
      2 N          62.6245   88.8217   12.7260 N.ar    1  UNL1       -0.2131
      3 C          61.9616   89.0489   11.3998 C.ar    1  UNL1        0.1714
      4 N          62.4042   90.1838   10.5247 N.ar    1  UNL1       -0.2279
      5 C          63.5098   91.0917   10.9758 C.ar    1  UNL1        0.0854
      6 C          63.9525   92.2267   10.1007 C.ar    1  UNL1        0.0192
      7 C          65.0580   93.1345   10.5519 C.ar    1  UNL1        0.0015
      8 C          65.7209   92.9074   11.8781 C.ar    1  UNL1        0.0002
      9 C          65.2782   91.7724   12.7532 C.ar    1  UNL1        0.0043
     10 C          64.1727   90.8646   12.3021 C.ar    1  UNL1        0.0494
     11 C          60.8560   88.1410   10.9486 C.3     1  UNL1        0.1912
     12 O          59.5382   88.1505   11.6652 O.3     1  UNL1       -0.3730
     13 H          59.5686   88.7950   12.3894 H       1  UNL1        0.2113
     14 C          61.0681   87.2236    9.7810 C.ar    1  UNL1        0.0117
     15 C          59.9603   86.9949    8.7959 C.ar    1  UNL1        0.0008
     16 C          60.1725   86.0776    7.6282 C.ar    1  UNL1        0.0294
     17 C          61.4926   85.3889    7.4457 C.ar    1  UNL1        0.1401
     18 F          61.7048   84.4715    6.2780 F       1  UNL1       -0.2042
     19 C          62.6004   85.6176    8.4308 C.ar    1  UNL1        0.0294
     20 C          62.3881   86.5350    9.5985 C.ar    1  UNL1        0.0008
     21 N          64.3929   89.5024   14.5035 N.pl3   1  UNL1       -0.2819
     22 H          65.1002   90.1140   14.8114 H       1  UNL1        0.1551
     23 C          62.4426   86.6577   18.5015 C.3     1  UNL1        0.0515
     24 C          63.0817   87.0358   17.1982 C.ar    1  UNL1        0.0548
     25 C          63.3166   88.4323   16.7037 C.ar    1  UNL1        0.0502
     26 C          63.9781   88.3433   15.3605 C.ar    1  UNL1        0.1539
     27 N          64.1522   86.8917   15.0247 N.ar    1  UNL1       -0.1577
     28 N          63.5981   86.0836   16.1605 N.ar    1  UNL1       -0.2786
     29 H          63.5771   85.1009   16.2152 H       1  UNL1        0.1886
@<TRIPOS>BOND
     1    23    24    1
     2    24    25   ar
     3    25    26   ar
     4    26    21    1
     5    21     1    1
     6     1     2   ar
     7     2     3   ar
     8     3    11    1
     9    11    12    1
    10    11    14    1
    11    14    15   ar
    12    15    16   ar
    13    16    17   ar
    14    17    18    1
    15    17    19   ar
    16    19    20   ar
    17     3     4   ar
    18     4     5   ar
    19     5     6   ar
    20     6     7   ar
    21     7     8   ar
    22     8     9   ar
    23     9    10   ar
    24    26    27   ar
    25    27    28   ar
    26    28    24   ar
    27    10     1   ar
    28    20    14   ar
    29    10     5   ar
    30    21    22    1
    31    12    13    1
    32    28    29    1
@<TRIPOS>MOLECULE
*****
 29 32 0 0 0
SMALL
GASTEIGER

@<TRIPOS>ATOM
      1 C          63.9520   90.7165   14.5620 C.ar    1  UNL1        0.1361
      2 N          63.2873   90.4676   13.2406 N.ar    1  UNL1       -0.2131
      3 C          63.7762   91.1731   12.0104 C.ar    1  UNL1        0.1714
      4 N          64.9297   92.1275   12.1016 N.ar    1  UNL1       -0.2279
      5 C          65.5945   92.3764   13.4231 C.ar    1  UNL1        0.0854
      6 C          66.7481   93.3308   13.5143 C.ar    1  UNL1        0.0192
      7 C          67.4128   93.5797   14.8357 C.ar    1  UNL1        0.0015
      8 C          66.9240   92.8742   16.0659 C.ar    1  UNL1        0.0002
      9 C          65.7704   91.9198   15.9747 C.ar    1  UNL1        0.0043
     10 C          65.1057   91.6709   14.6533 C.ar    1  UNL1        0.0494
     11 C          63.1114   90.9241   10.6890 C.3     1  UNL1        0.1912
     12 O          63.1328   91.9835    9.6273 O.3     1  UNL1       -0.3730
     13 H          63.6130   92.7600    9.9550 H       1  UNL1        0.2113
     14 C          62.4252   89.6159   10.4293 C.ar    1  UNL1        0.0117
     15 C          61.3395   89.5301    9.3978 C.ar    1  UNL1        0.0008
     16 C          60.6533   88.2219    9.1381 C.ar    1  UNL1        0.0294
     17 C          61.0528   86.9992    9.9099 C.ar    1  UNL1        0.1401
     18 F          60.3666   85.6909    9.6502 F       1  UNL1       -0.2042
     19 C          62.1385   87.0849   10.9414 C.ar    1  UNL1        0.0294
     20 C          62.8247   88.3933   11.2010 C.ar    1  UNL1        0.0008
     21 N          63.4632   90.0110   15.7921 N.pl3   1  UNL1       -0.2819
     22 H          63.1017   90.5302   16.5465 H       1  UNL1        0.1551
     23 C          64.6456   84.9705   14.7550 C.3     1  UNL1        0.0515
     24 C          64.0686   86.1977   15.3963 C.ar    1  UNL1        0.0548
     25 C          64.2867   87.6123   14.9479 C.ar    1  UNL1        0.0502
     26 C          63.5251   88.5145   15.8730 C.ar    1  UNL1        0.1539
     27 N          62.8363   87.6574   16.8933 N.ar    1  UNL1       -0.1577
     28 N          63.1722   86.2255   16.5987 N.ar    1  UNL1       -0.2786
     29 H          62.8593   85.4416   17.1055 H       1  UNL1        0.1886
@<TRIPOS>BOND
     1    23    24    1
     2    24    25   ar
     3    25    26   ar
     4    26    21    1
     5    21     1    1
     6     1     2   ar
     7     2     3   ar
     8     3    11    1
     9    11    12    1
    10    11    14    1
    11    14    15   ar
    12    15    16   ar
    13    16    17   ar
    14    17    18    1
    15    17    19   ar
    16    19    20   ar
    17     3     4   ar
    18     4     5   ar
    19     5     6   ar
    20     6     7   ar
    21     7     8   ar
    22     8     9   ar
    23     9    10   ar
    24    26    27   ar
    25    27    28   ar
    26    28    24   ar
    27    10     1   ar
    28    20    14   ar
    29    10     5   ar
    30    21    22    1
    31    12    13    1
    32    28    29    1
@<TRIPOS>MOLECULE
*****
 29 32 0 0 0
SMALL
GASTEIGER

@<TRIPOS>ATOM
      1 C          62.7774   87.1203   11.9470 C.ar    1  UNL1        0.1361
      2 N          62.9526   88.5733   12.2753 N.ar    1  UNL1       -0.2131
      3 C          63.6811   88.9779   13.5226 C.ar    1  UNL1        0.1714
      4 N          64.2343   87.9293   14.4415 N.ar    1  UNL1       -0.2279
      5 C          64.0591   86.4762   14.1132 C.ar    1  UNL1        0.0854
      6 C          64.6124   85.4276   15.0321 C.ar    1  UNL1        0.0192
      7 C          64.4372   83.9746   14.7037 C.ar    1  UNL1        0.0015
      8 C          63.7087   83.5701   13.4565 C.ar    1  UNL1        0.0002
      9 C          63.1555   84.6186   12.5376 C.ar    1  UNL1        0.0043
     10 C          63.3307   86.0716   12.8659 C.ar    1  UNL1        0.0494
     11 C          63.8563   90.4310   13.8509 C.3     1  UNL1        0.1912
     12 O          63.1798   91.0145   15.0559 O.3     1  UNL1       -0.3730
     13 H          62.6725   90.3227   15.5086 H       1  UNL1        0.2113
     14 C          64.7079   91.3006   12.9744 C.ar    1  UNL1        0.0117
     15 C          66.0157   91.8285   13.4853 C.ar    1  UNL1        0.0008
     16 C          66.8674   92.6981   12.6087 C.ar    1  UNL1        0.0294
     17 C          66.4113   93.0398   11.2211 C.ar    1  UNL1        0.1401
     18 F          67.2630   93.9094   10.3445 F       1  UNL1       -0.2042
     19 C          65.1035   92.5119   10.7102 C.ar    1  UNL1        0.0294
     20 C          64.2518   91.6422   11.5869 C.ar    1  UNL1        0.0008
     21 N          62.0489   86.7157   10.6997 N.pl3   1  UNL1       -0.2819
     22 H          62.0328   85.7709   10.4236 H       1  UNL1        0.1551
     23 C          59.0945   89.0061    6.9706 C.3     1  UNL1        0.0515
     24 C          59.9871   88.8035    8.1591 C.ar    1  UNL1        0.0548
     25 C          60.4867   87.4855    8.6720 C.ar    1  UNL1        0.0502
     26 C          61.3450   87.7508    9.8732 C.ar    1  UNL1        0.1539
     27 N          61.3759   89.2328   10.1026 N.ar    1  UNL1       -0.1577
     28 N          60.5367   89.8835    9.0433 N.ar    1  UNL1       -0.2786
     29 H          60.3749   90.8497    8.9455 H       1  UNL1        0.1886
@<TRIPOS>BOND
     1    23    24    1
     2    24    25   ar
     3    25    26   ar
     4    26    21    1
     5    21     1    1
     6     1     2   ar
     7     2     3   ar
     8     3    11    1
     9    11    12    1
    10    11    14    1
    11    14    15   ar
    12    15    16   ar
    13    16    17   ar
    14    17    18    1
    15    17    19   ar
    16    19    20   ar
    17     3     4   ar
    18     4     5   ar
    19     5     6   ar
    20     6     7   ar
    21     7     8   ar
    22     8     9   ar
    23     9    10   ar
    24    26    27   ar
    25    27    28   ar
    26    28    24   ar
    27    10     1   ar
    28    20    14   ar
    29    10     5   ar
    30    21    22    1
    31    12    13    1
    32    28    29    1
@<TRIPOS>MOLECULE
*****
 29 32 0 0 0
SMALL
GASTEIGER

@<TRIPOS>ATOM
      1 C          61.5061   88.4704   10.8217 C.ar    1  UNL1        0.1361
      2 N          62.2618   87.4959   11.6757 N.ar    1  UNL1       -0.2131
      3 C          62.3075   86.0452   11.2972 C.ar    1  UNL1        0.1714
      4 N          61.5974   85.5689   10.0648 N.ar    1  UNL1       -0.2279
      5 C          60.8417   86.5434    9.2107 C.ar    1  UNL1        0.0854
      6 C          60.1316   86.0671    7.9783 C.ar    1  UNL1        0.0192
      7 C          59.3759   87.0415    7.1243 C.ar    1  UNL1        0.0015
      8 C          59.3303   88.4923    7.5028 C.ar    1  UNL1        0.0002
      9 C          60.0403   88.9686    8.7352 C.ar    1  UNL1        0.0043
     10 C          60.7960   87.9941    9.5892 C.ar    1  UNL1        0.0494
     11 C          63.0632   85.0707   12.1513 C.3     1  UNL1        0.1912
     12 O          63.7131   83.8721   11.5259 O.3     1  UNL1       -0.3730
     13 H          63.5499   83.8779   10.5697 H       1  UNL1        0.2113
     14 C          63.1691   85.2948   13.6306 C.ar    1  UNL1        0.0117
     15 C          64.1141   86.3289   14.1668 C.ar    1  UNL1        0.0008
     16 C          64.2200   86.5530   15.6461 C.ar    1  UNL1        0.0294
     17 C          63.3807   85.7430   16.5894 C.ar    1  UNL1        0.1401
     18 F          63.4866   85.9672   18.0687 F       1  UNL1       -0.2042
     19 C          62.4356   84.7090   16.0532 C.ar    1  UNL1        0.0294
     20 C          62.3298   84.4849   14.5738 C.ar    1  UNL1        0.0008
     21 N          61.4605   89.9212   11.2002 N.pl3   1  UNL1       -0.2819
     22 H          60.5945   90.3836   11.2740 H       1  UNL1        0.1551
     23 C          65.7852   92.8743   10.5244 C.3     1  UNL1        0.0515
     24 C          64.7221   92.0247   11.1554 C.ar    1  UNL1        0.0548
     25 C          63.5278   91.4443   10.4578 C.ar    1  UNL1        0.0502
     26 C          62.7342   90.6673   11.4660 C.ar    1  UNL1        0.1539
     27 N          63.4381   90.7675   12.7869 N.ar    1  UNL1       -0.1577
     28 N          64.6667   91.6064   12.5949 N.ar    1  UNL1       -0.2786
     29 H          65.3217   91.8413   13.2914 H       1  UNL1        0.1886
@<TRIPOS>BOND
     1    23    24    1
     2    24    25   ar
     3    25    26   ar
     4    26    21    1
     5    21     1    1
     6     1     2   ar
     7     2     3   ar
     8     3    11    1
     9    11    12    1
    10    11    14    1
    11    14    15   ar
    12    15    16   ar
    13    16    17   ar
    14    17    18    1
    15    17    19   ar
    16    19    20   ar
    17     3     4   ar
    18     4     5   ar
    19     5     6   ar
    20     6     7   ar
    21     7     8   ar
    22     8     9   ar
    23     9    10   ar
    24    26    27   ar
    25    27    28   ar
    26    28    24   ar
    27    10     1   ar
    28    20    14   ar
    29    10     5   ar
    30    21    22    1
    31    12    13    1
    32    28    29    1
