@<TRIPOS>MOLECULE
*****
 30 32 0 0 0
SMALL
GASTEIGER

@<TRIPOS>ATOM
      1 C          63.6559   88.2393   13.3093 C.ar    1  UNL1        0.1329
      2 N          63.3493   86.7842   13.1128 N.ar    1  UNL1       -0.1993
      3 C          62.7210   86.3162   11.8337 C.ar    1  UNL1        0.2148
      4 N          62.4144   84.8610   11.6373 N.pl3   1  UNL1       -0.3274
      5 N          62.3991   87.3032   10.7511 N.ar    1  UNL1       -0.2139
      6 C          62.7056   88.7584   10.9476 C.ar    1  UNL1        0.0870
      7 C          62.3837   89.7455    9.8650 C.ar    1  UNL1        0.0193
      8 C          62.6903   91.2006   10.0615 C.ar    1  UNL1        0.0017
      9 C          63.3187   91.6687   11.3406 C.ar    1  UNL1        0.0047
     10 C          63.6405   90.6816   12.4232 C.ar    1  UNL1        0.0577
     11 C          63.3340   89.2265   12.2267 C.ar    1  UNL1        0.0536
     12 H          62.6257   84.2131   12.3478 H       1  UNL1        0.1452
     13 H          62.0020   84.5538   10.7978 H       1  UNL1        0.1452
     14 C          64.2689   91.1496   13.7022 C.2     1  UNL1        0.2494
     15 O          63.4542   91.2091   14.9603 O.2     1  UNL1       -0.2699
     16 N          65.7120   91.5582   13.7233 N.am    1  UNL1       -0.2702
     17 C          66.3404   92.0262   15.0024 C.3     1  UNL1        0.1155
     18 C          66.5268   91.4987   12.4653 C.3     1  UNL1        0.1205
     19 C          66.6677   92.7191   11.6045 C.ar    1  UNL1       -0.0023
     20 C          66.1031   94.0305   12.0645 C.ar    1  UNL1       -0.0026
     21 C          66.2440   95.2509   11.2038 C.ar    1  UNL1       -0.0003
     22 C          66.9495   95.1598    9.8831 C.ar    1  UNL1       -0.0000
     23 C          67.5140   93.8485    9.4232 C.ar    1  UNL1       -0.0003
     24 C          67.3731   92.6280   10.2839 C.ar    1  UNL1       -0.0026
     25 N          64.2843   88.7074   14.5884 N.pl3   1  UNL1       -0.3180
     26 H          64.7849   89.5548   14.6096 H       1  UNL1        0.1482
     27 C          64.1499   87.8843   15.8351 C.3     1  UNL1        0.0882
     28 C          63.1145   88.2397   16.8606 C.3     1  UNL1        0.0212
     29 C          62.2941   85.8252   17.3576 C.3     1  UNL1        0.0001
     30 C          62.6387   87.2044   17.8362 C.3     1  UNL1        0.0017
@<TRIPOS>BOND
     1    29    30    1
     2    30    28    1
     3    28    27    1
     4    27    25    1
     5    25     1    1
     6     1     2   ar
     7     2     3   ar
     8     3     4    1
     9     3     5   ar
    10     5     6   ar
    11     6     7   ar
    12     7     8   ar
    13     8     9   ar
    14     9    10   ar
    15    10    14    1
    16    14    15    2
    17    14    16   am
    18    16    17    1
    19    16    18    1
    20    18    19    1
    21    19    20   ar
    22    20    21   ar
    23    21    22   ar
    24    22    23   ar
    25    23    24   ar
    26    10    11   ar
    27    11     1   ar
    28    11     6   ar
    29    24    19   ar
    30    25    26    1
    31     4    12    1
    32     4    13    1
@<TRIPOS>MOLECULE
*****
 30 32 0 0 0
SMALL
GASTEIGER

@<TRIPOS>ATOM
      1 C          65.4172   91.9939   13.2609 C.ar    1  UNL1        0.1329
      2 N          66.4232   92.9660   12.7197 N.ar    1  UNL1       -0.1993
      3 C          66.3525   93.3975   11.2848 C.ar    1  UNL1        0.2148
      4 N          67.3585   94.3697   10.7435 N.pl3   1  UNL1       -0.3274
      5 N          65.2758   92.8569   10.3912 N.ar    1  UNL1       -0.2139
      6 C          64.2698   91.8847   10.9325 C.ar    1  UNL1        0.0870
      7 C          63.1932   91.3441   10.0389 C.ar    1  UNL1        0.0193
      8 C          62.1872   90.3720   10.5802 C.ar    1  UNL1        0.0017
      9 C          62.2579   89.9405   12.0150 C.ar    1  UNL1        0.0047
     10 C          63.3346   90.4811   12.9086 C.ar    1  UNL1        0.0577
     11 C          64.3405   91.4532   12.3673 C.ar    1  UNL1        0.0536
     12 H          68.0652   94.7245   11.3301 H       1  UNL1        0.1452
     13 H          67.3121   94.6529    9.8018 H       1  UNL1        0.1452
     14 C          63.4053   90.0496   14.3435 C.2     1  UNL1        0.2494
     15 O          63.0708   91.0212   15.4362 O.2     1  UNL1       -0.2699
     16 N          63.8105   88.6465   14.6856 N.am    1  UNL1       -0.2702
     17 C          63.8812   88.2150   16.1204 C.3     1  UNL1        0.1155
     18 C          64.1450   87.6748   13.5928 C.3     1  UNL1        0.1205
     19 C          63.8864   86.2101   13.7866 C.ar    1  UNL1       -0.0023
     20 C          63.0081   85.4695   12.8220 C.ar    1  UNL1       -0.0026
     21 C          62.7495   84.0047   13.0157 C.ar    1  UNL1       -0.0003
     22 C          63.3691   83.2805   14.1740 C.ar    1  UNL1       -0.0000
     23 C          64.2473   84.0210   15.1386 C.ar    1  UNL1       -0.0003
     24 C          64.5059   85.4858   14.9448 C.ar    1  UNL1       -0.0026
     25 N          65.4879   91.5624   14.6958 N.pl3   1  UNL1       -0.3180
     26 H          65.0493   90.7285   14.9812 H       1  UNL1        0.1482
     27 C          66.2270   92.4013   15.6957 C.3     1  UNL1        0.0882
     28 C          67.6617   92.0998   16.0133 C.3     1  UNL1        0.0212
     29 C          69.1368   94.2385   16.0032 C.3     1  UNL1        0.0001
     30 C          68.7550   92.9209   15.3964 C.3     1  UNL1        0.0017
@<TRIPOS>BOND
     1    29    30    1
     2    30    28    1
     3    28    27    1
     4    27    25    1
     5    25     1    1
     6     1     2   ar
     7     2     3   ar
     8     3     4    1
     9     3     5   ar
    10     5     6   ar
    11     6     7   ar
    12     7     8   ar
    13     8     9   ar
    14     9    10   ar
    15    10    14    1
    16    14    15    2
    17    14    16   am
    18    16    17    1
    19    16    18    1
    20    18    19    1
    21    19    20   ar
    22    20    21   ar
    23    21    22   ar
    24    22    23   ar
    25    23    24   ar
    26    10    11   ar
    27    11     1   ar
    28    11     6   ar
    29    24    19   ar
    30    25    26    1
    31     4    12    1
    32     4    13    1
@<TRIPOS>MOLECULE
*****
 30 32 0 0 0
SMALL
GASTEIGER

@<TRIPOS>ATOM
      1 C          64.3906   90.1691   13.8714 C.ar    1  UNL1        0.1329
      2 N          65.5773   90.4672   14.7390 N.ar    1  UNL1       -0.1993
      3 C          66.6038   91.4642   14.2891 C.ar    1  UNL1        0.2148
      4 N          67.7906   91.7622   15.1568 N.pl3   1  UNL1       -0.3274
      5 N          66.4435   92.1631   12.9717 N.ar    1  UNL1       -0.2139
      6 C          65.2567   91.8651   12.1040 C.ar    1  UNL1        0.0870
      7 C          65.0964   92.5640   10.7866 C.ar    1  UNL1        0.0193
      8 C          63.9096   92.2659    9.9190 C.ar    1  UNL1        0.0017
      9 C          62.8832   91.2689   10.3689 C.ar    1  UNL1        0.0047
     10 C          63.0435   90.5700   11.6863 C.ar    1  UNL1        0.0577
     11 C          64.2302   90.8681   12.5539 C.ar    1  UNL1        0.0536
     12 H          67.8958   91.3034   16.0215 H       1  UNL1        0.1452
     13 H          68.4643   92.4165   14.8615 H       1  UNL1        0.1452
     14 C          62.0170   89.5730   12.1362 C.2     1  UNL1        0.2494
     15 O          61.2180   89.8284   13.3797 O.2     1  UNL1       -0.2699
     16 N          61.7896   88.3207   11.3426 N.am    1  UNL1       -0.2702
     17 C          60.7631   87.3237   11.7925 C.3     1  UNL1        0.1155
     18 C          62.5886   88.0653   10.0991 C.3     1  UNL1        0.1205
     19 C          62.1167   87.0515    9.0993 C.ar    1  UNL1       -0.0023
     20 C          63.0460   85.9714    8.6305 C.ar    1  UNL1       -0.0026
     21 C          62.5741   84.9576    7.6308 C.ar    1  UNL1       -0.0003
     22 C          61.1728   85.0239    7.0998 C.ar    1  UNL1       -0.0000
     23 C          60.2434   86.1039    7.5686 C.ar    1  UNL1       -0.0003
     24 C          60.7153   87.1177    8.5684 C.ar    1  UNL1       -0.0026
     25 N          63.3641   89.1721   14.3213 N.pl3   1  UNL1       -0.3180
     26 H          62.4340   89.2476   14.0076 H       1  UNL1        0.1482
     27 C          63.7548   88.0602   15.2491 C.3     1  UNL1        0.0882
     28 C          64.5230   86.8824   14.7268 C.3     1  UNL1        0.0212
     29 C          64.6678   84.2967   14.5189 C.3     1  UNL1        0.0001
     30 C          64.2865   85.5176   15.3025 C.3     1  UNL1        0.0017
@<TRIPOS>BOND
     1    29    30    1
     2    30    28    1
     3    28    27    1
     4    27    25    1
     5    25     1    1
     6     1     2   ar
     7     2     3   ar
     8     3     4    1
     9     3     5   ar
    10     5     6   ar
    11     6     7   ar
    12     7     8   ar
    13     8     9   ar
    14     9    10   ar
    15    10    14    1
    16    14    15    2
    17    14    16   am
    18    16    17    1
    19    16    18    1
    20    18    19    1
    21    19    20   ar
    22    20    21   ar
    23    21    22   ar
    24    22    23   ar
    25    23    24   ar
    26    10    11   ar
    27    11     1   ar
    28    11     6   ar
    29    24    19   ar
    30    25    26    1
    31     4    12    1
    32     4    13    1
@<TRIPOS>MOLECULE
*****
 30 32 0 0 0
SMALL
GASTEIGER

@<TRIPOS>ATOM
      1 C          63.3047   87.3147   12.8109 C.ar    1  UNL1        0.1329
      2 N          63.3552   85.8754   12.3917 N.ar    1  UNL1       -0.1993
      3 C          62.8094   85.4635   11.0565 C.ar    1  UNL1        0.2148
      4 N          62.8598   84.0241   10.6373 N.pl3   1  UNL1       -0.3274
      5 N          62.2132   86.4910   10.1407 N.ar    1  UNL1       -0.2139
      6 C          62.1628   87.9304   10.5599 C.ar    1  UNL1        0.0870
      7 C          61.5666   88.9578    9.6440 C.ar    1  UNL1        0.0193
      8 C          61.5162   90.3971   10.0633 C.ar    1  UNL1        0.0017
      9 C          62.0620   90.8090   11.3984 C.ar    1  UNL1        0.0047
     10 C          62.6581   89.7815   12.3143 C.ar    1  UNL1        0.0577
     11 C          62.7086   88.3422   11.8950 C.ar    1  UNL1        0.0536
     12 H          63.2511   83.3498   11.2384 H       1  UNL1        0.1452
     13 H          62.5016   83.7538    9.7610 H       1  UNL1        0.1452
     14 C          63.2039   90.1934   13.6494 C.2     1  UNL1        0.2494
     15 O          62.4054   89.9459   14.8948 O.2     1  UNL1       -0.2699
     16 N          64.5482   90.8527   13.7391 N.am    1  UNL1       -0.2702
     17 C          65.0939   91.2645   15.0743 C.3     1  UNL1        0.1155
     18 C          65.3468   91.1002   12.4937 C.3     1  UNL1        0.1205
     19 C          65.6509   92.5050   12.0646 C.ar    1  UNL1       -0.0023
     20 C          66.1263   93.5104   13.0712 C.ar    1  UNL1       -0.0026
     21 C          66.4305   94.9152   12.6421 C.ar    1  UNL1       -0.0003
     22 C          66.2592   95.3145   11.2064 C.ar    1  UNL1       -0.0000
     23 C          65.7839   94.3092   10.1999 C.ar    1  UNL1       -0.0003
     24 C          65.4797   92.9044   10.6289 C.ar    1  UNL1       -0.0026
     25 N          63.8505   87.7265   14.1460 N.pl3   1  UNL1       -0.3180
     26 H          63.7022   88.6416   14.4774 H       1  UNL1        0.1482
     27 C          64.6221   86.7441   14.9763 C.3     1  UNL1        0.0882
     28 C          63.9115   85.8985   15.9912 C.3     1  UNL1        0.0212
     29 C          62.0392   84.1809   15.4481 C.3     1  UNL1        0.0001
     30 C          63.4917   84.5014   15.6417 C.3     1  UNL1        0.0017
@<TRIPOS>BOND
     1    29    30    1
     2    30    28    1
     3    28    27    1
     4    27    25    1
     5    25     1    1
     6     1     2   ar
     7     2     3   ar
     8     3     4    1
     9     3     5   ar
    10     5     6   ar
    11     6     7   ar
    12     7     8   ar
    13     8     9   ar
    14     9    10   ar
    15    10    14    1
    16    14    15    2
    17    14    16   am
    18    16    17    1
    19    16    18    1
    20    18    19    1
    21    19    20   ar
    22    20    21   ar
    23    21    22   ar
    24    22    23   ar
    25    23    24   ar
    26    10    11   ar
    27    11     1   ar
    28    11     6   ar
    29    24    19   ar
    30    25    26    1
    31     4    12    1
    32     4    13    1
@<TRIPOS>MOLECULE
*****
 30 32 0 0 0
SMALL
GASTEIGER

@<TRIPOS>ATOM
      1 C          62.4770   83.4737   13.7520 C.ar    1  UNL1        0.1329
      2 N          62.2645   82.2395   14.5775 N.ar    1  UNL1       -0.1993
      3 C          62.5603   80.8885   13.9967 C.ar    1  UNL1        0.2148
      4 N          62.3478   79.6543   14.8223 N.pl3   1  UNL1       -0.3274
      5 N          63.0686   80.7717   12.5903 N.ar    1  UNL1       -0.2139
      6 C          63.2811   82.0060   11.7647 C.ar    1  UNL1        0.0870
      7 C          63.7894   81.8892   10.3583 C.ar    1  UNL1        0.0193
      8 C          64.0019   83.1234    9.5328 C.ar    1  UNL1        0.0017
      9 C          63.7060   84.4744   10.1136 C.ar    1  UNL1        0.0047
     10 C          63.1977   84.5911   11.5200 C.ar    1  UNL1        0.0577
     11 C          62.9853   83.3569   12.3455 C.ar    1  UNL1        0.0536
     12 H          62.0142   79.7309   15.7454 H       1  UNL1        0.1452
     13 H          62.5419   78.7676   14.4411 H       1  UNL1        0.1452
     14 C          62.9019   85.9421   12.1009 C.2     1  UNL1        0.2494
     15 O          63.7526   86.4837   13.2112 O.2     1  UNL1       -0.2699
     16 N          61.7554   86.7515   11.5713 N.am    1  UNL1       -0.2702
     17 C          61.4596   88.1024   12.1522 C.3     1  UNL1        0.1155
     18 C          60.9047   86.2099   10.4609 C.3     1  UNL1        0.1205
     19 C          60.3983   87.1277    9.3881 C.ar    1  UNL1       -0.0023
     20 C          59.6106   86.5742    8.2377 C.ar    1  UNL1       -0.0026
     21 C          59.1042   87.4921    7.1649 C.ar    1  UNL1       -0.0003
     22 C          59.3854   88.9635    7.2423 C.ar    1  UNL1       -0.0000
     23 C          60.1730   89.5170    8.3926 C.ar    1  UNL1       -0.0003
     24 C          60.6795   88.5991    9.4655 C.ar    1  UNL1       -0.0026
     25 N          62.1811   84.8246   14.3329 N.pl3   1  UNL1       -0.3180
     26 H          62.0512   85.5984   13.7382 H       1  UNL1        0.1482
     27 C          62.0834   84.9967   15.8197 C.3     1  UNL1        0.0882
     28 C          63.1552   85.7396   16.5608 C.3     1  UNL1        0.0212
     29 C          63.0462   88.2801   17.0938 C.3     1  UNL1        0.0001
     30 C          62.7869   86.8571   17.4912 C.3     1  UNL1        0.0017
@<TRIPOS>BOND
     1    29    30    1
     2    30    28    1
     3    28    27    1
     4    27    25    1
     5    25     1    1
     6     1     2   ar
     7     2     3   ar
     8     3     4    1
     9     3     5   ar
    10     5     6   ar
    11     6     7   ar
    12     7     8   ar
    13     8     9   ar
    14     9    10   ar
    15    10    14    1
    16    14    15    2
    17    14    16   am
    18    16    17    1
    19    16    18    1
    20    18    19    1
    21    19    20   ar
    22    20    21   ar
    23    21    22   ar
    24    22    23   ar
    25    23    24   ar
    26    10    11   ar
    27    11     1   ar
    28    11     6   ar
    29    24    19   ar
    30    25    26    1
    31     4    12    1
    32     4    13    1
@<TRIPOS>MOLECULE
*****
 30 32 0 0 0
SMALL
GASTEIGER

@<TRIPOS>ATOM
      1 C          63.2351   85.1651   12.9473 C.ar    1  UNL1        0.1329
      2 N          63.5587   83.8441   13.5800 N.ar    1  UNL1       -0.1993
      3 C          63.7466   82.6278   12.7225 C.ar    1  UNL1        0.2148
      4 N          64.0702   81.3068   13.3553 N.pl3   1  UNL1       -0.3274
      5 N          63.6109   82.7324   11.2324 N.ar    1  UNL1       -0.2139
      6 C          63.2873   84.0535   10.5996 C.ar    1  UNL1        0.0870
      7 C          63.1516   84.1581    9.1095 C.ar    1  UNL1        0.0193
      8 C          62.8281   85.4790    8.4768 C.ar    1  UNL1        0.0017
      9 C          62.6402   86.6954    9.3343 C.ar    1  UNL1        0.0047
     10 C          62.7758   86.5907   10.8244 C.ar    1  UNL1        0.0577
     11 C          63.0994   85.2698   11.4571 C.ar    1  UNL1        0.0536
     12 H          64.1592   81.2381   14.3333 H       1  UNL1        0.1452
     13 H          64.1935   80.5085   12.7925 H       1  UNL1        0.1452
     14 C          62.5879   87.8070   11.6819 C.2     1  UNL1        0.2494
     15 O          63.7684   88.4353   12.3614 O.2     1  UNL1       -0.2699
     16 N          61.2196   88.3951   11.8599 N.am    1  UNL1       -0.2702
     17 C          61.0317   89.6114   12.7174 C.3     1  UNL1        0.1155
     18 C          60.0390   87.7668   11.1804 C.3     1  UNL1        0.1205
     19 C          59.7962   88.0114    9.7205 C.ar    1  UNL1       -0.0023
     20 C          60.1019   89.3532    9.1238 C.ar    1  UNL1       -0.0026
     21 C          59.8590   89.5978    7.6639 C.ar    1  UNL1       -0.0003
     22 C          59.3106   88.5004    6.8008 C.ar    1  UNL1       -0.0000
     23 C          59.0049   87.1586    7.3974 C.ar    1  UNL1       -0.0003
     24 C          59.2477   86.9141    8.8573 C.ar    1  UNL1       -0.0026
     25 N          63.0472   86.3814   13.8048 N.pl3   1  UNL1       -0.3180
     26 H          62.3358   87.0280   13.5928 H       1  UNL1        0.1482
     27 C          63.9433   86.6125   14.9853 C.3     1  UNL1        0.0882
     28 C          63.4502   86.3160   16.3706 C.3     1  UNL1        0.0212
     29 C          63.1005   88.8497   16.8269 C.3     1  UNL1        0.0001
     30 C          62.8845   87.4175   17.2172 C.3     1  UNL1        0.0017
@<TRIPOS>BOND
     1    29    30    1
     2    30    28    1
     3    28    27    1
     4    27    25    1
     5    25     1    1
     6     1     2   ar
     7     2     3   ar
     8     3     4    1
     9     3     5   ar
    10     5     6   ar
    11     6     7   ar
    12     7     8   ar
    13     8     9   ar
    14     9    10   ar
    15    10    14    1
    16    14    15    2
    17    14    16   am
    18    16    17    1
    19    16    18    1
    20    18    19    1
    21    19    20   ar
    22    20    21   ar
    23    21    22   ar
    24    22    23   ar
    25    23    24   ar
    26    10    11   ar
    27    11     1   ar
    28    11     6   ar
    29    24    19   ar
    30    25    26    1
    31     4    12    1
    32     4    13    1
@<TRIPOS>MOLECULE
*****
 30 32 0 0 0
SMALL
GASTEIGER

@<TRIPOS>ATOM
      1 C          63.0632   88.4048   12.7512 C.ar    1  UNL1        0.1329
      2 N          62.6273   89.6376   12.0164 N.ar    1  UNL1       -0.1993
      3 C          62.1028   89.5296   10.6152 C.ar    1  UNL1        0.2148
      4 N          61.6669   90.7626    9.8804 N.pl3   1  UNL1       -0.3274
      5 N          62.0143   88.1887    9.9488 N.ar    1  UNL1       -0.2139
      6 C          62.4502   86.9558   10.6836 C.ar    1  UNL1        0.0870
      7 C          62.3617   85.6149   10.0172 C.ar    1  UNL1        0.0193
      8 C          62.7976   84.3820   10.7520 C.ar    1  UNL1        0.0017
      9 C          63.3221   84.4900   12.1532 C.ar    1  UNL1        0.0047
     10 C          63.4106   85.8309   12.8196 C.ar    1  UNL1        0.0577
     11 C          62.9747   87.0638   12.0848 C.ar    1  UNL1        0.0536
     12 H          61.7250   91.6427   10.3178 H       1  UNL1        0.1452
     13 H          61.3227   90.6917    8.9608 H       1  UNL1        0.1452
     14 C          63.9351   85.9389   14.2207 C.2     1  UNL1        0.2494
     15 O          65.1068   86.8274   14.5166 O.2     1  UNL1       -0.2699
     16 N          63.2878   85.1584   15.3261 N.am    1  UNL1       -0.2702
     17 C          63.8123   85.2665   16.7272 C.3     1  UNL1        0.1155
     18 C          62.1160   84.2699   15.0303 C.3     1  UNL1        0.1205
     19 C          62.3410   82.8706   14.5390 C.ar    1  UNL1       -0.0023
     20 C          63.7350   82.3831   14.2759 C.ar    1  UNL1       -0.0026
     21 C          63.9600   80.9838   13.7847 C.ar    1  UNL1       -0.0003
     22 C          62.7911   80.0720   13.5565 C.ar    1  UNL1       -0.0000
     23 C          61.3971   80.5594   13.8195 C.ar    1  UNL1       -0.0003
     24 C          61.1721   81.9588   14.3108 C.ar    1  UNL1       -0.0026
     25 N          63.5877   88.5128   14.1523 N.pl3   1  UNL1       -0.3180
     26 H          64.1154   87.7768   14.5385 H       1  UNL1        0.1482
     27 C          63.3082   89.7421   14.9651 C.3     1  UNL1        0.0882
     28 C          64.4045   90.7308   15.2309 C.3     1  UNL1        0.0212
     29 C          65.2523   91.8615   13.0508 C.3     1  UNL1        0.0001
     30 C          65.4861   90.9429   14.2134 C.3     1  UNL1        0.0017
@<TRIPOS>BOND
     1    29    30    1
     2    30    28    1
     3    28    27    1
     4    27    25    1
     5    25     1    1
     6     1     2   ar
     7     2     3   ar
     8     3     4    1
     9     3     5   ar
    10     5     6   ar
    11     6     7   ar
    12     7     8   ar
    13     8     9   ar
    14     9    10   ar
    15    10    14    1
    16    14    15    2
    17    14    16   am
    18    16    17    1
    19    16    18    1
    20    18    19    1
    21    19    20   ar
    22    20    21   ar
    23    21    22   ar
    24    22    23   ar
    25    23    24   ar
    26    10    11   ar
    27    11     1   ar
    28    11     6   ar
    29    24    19   ar
    30    25    26    1
    31     4    12    1
    32     4    13    1
@<TRIPOS>MOLECULE
*****
 30 32 0 0 0
SMALL
GASTEIGER

@<TRIPOS>ATOM
      1 C          62.8642   93.5677   -1.9422 C.ar    1  UNL1        0.1329
      2 N          64.0525   92.9647   -2.6309 N.ar    1  UNL1       -0.1993
      3 C          64.1757   93.0464   -4.1236 C.ar    1  UNL1        0.2148
      4 N          65.3641   92.4434   -4.8122 N.pl3   1  UNL1       -0.3274
      5 N          63.1106   93.7312   -4.9276 N.ar    1  UNL1       -0.2139
      6 C          61.9222   94.3342   -4.2390 C.ar    1  UNL1        0.0870
      7 C          60.8570   95.0190   -5.0431 C.ar    1  UNL1        0.0193
      8 C          59.6687   95.6220   -4.3545 C.ar    1  UNL1        0.0017
      9 C          59.5455   95.5403   -2.8618 C.ar    1  UNL1        0.0047
     10 C          60.6106   94.8555   -2.0577 C.ar    1  UNL1        0.0577
     11 C          61.7990   94.2525   -2.7463 C.ar    1  UNL1        0.0536
     12 H          66.0631   91.9939   -4.2844 H       1  UNL1        0.1452
     13 H          65.4449   92.4970   -5.7919 H       1  UNL1        0.1452
     14 C          60.4874   94.7737   -0.5650 C.2     1  UNL1        0.2494
     15 O          61.0391   95.8724    0.2944 O.2     1  UNL1       -0.2699
     16 N          59.8126   93.5933    0.0683 N.am    1  UNL1       -0.2702
     17 C          59.6894   93.5116    1.5610 C.3     1  UNL1        0.1155
     18 C          59.2610   92.4945   -0.7911 C.3     1  UNL1        0.1205
     19 C          58.0980   92.7647   -1.6991 C.ar    1  UNL1       -0.0023
     20 C          58.1435   92.3161   -3.1298 C.ar    1  UNL1       -0.0026
     21 C          56.9806   92.5863   -4.0378 C.ar    1  UNL1       -0.0003
     22 C          55.7721   93.3050   -3.5152 C.ar    1  UNL1       -0.0000
     23 C          55.7266   93.7536   -2.0846 C.ar    1  UNL1       -0.0003
     24 C          56.8896   93.4835   -1.1765 C.ar    1  UNL1       -0.0026
     25 N          62.7410   93.4859   -0.4495 N.pl3   1  UNL1       -0.3180
     26 H          61.8512   93.4360   -0.0311 H       1  UNL1        0.1482
     27 C          63.9733   93.4803    0.4055 C.3     1  UNL1        0.0882
     28 C          63.8880   93.0546    1.8413 C.3     1  UNL1        0.0212
     29 C          63.4199   90.9041    3.2221 C.3     1  UNL1        0.0001
     30 C          62.9639   91.9423    2.2402 C.3     1  UNL1        0.0017
@<TRIPOS>BOND
     1    29    30    1
     2    30    28    1
     3    28    27    1
     4    27    25    1
     5    25     1    1
     6     1     2   ar
     7     2     3   ar
     8     3     4    1
     9     3     5   ar
    10     5     6   ar
    11     6     7   ar
    12     7     8   ar
    13     8     9   ar
    14     9    10   ar
    15    10    14    1
    16    14    15    2
    17    14    16   am
    18    16    17    1
    19    16    18    1
    20    18    19    1
    21    19    20   ar
    22    20    21   ar
    23    21    22   ar
    24    22    23   ar
    25    23    24   ar
    26    10    11   ar
    27    11     1   ar
    28    11     6   ar
    29    24    19   ar
    30    25    26    1
    31     4    12    1
    32     4    13    1
@<TRIPOS>MOLECULE
*****
 30 32 0 0 0
SMALL
GASTEIGER

@<TRIPOS>ATOM
      1 C          62.9376   84.8624    9.9004 C.ar    1  UNL1        0.1329
      2 N          63.1471   84.3575    8.5036 N.ar    1  UNL1       -0.1993
      3 C          62.3577   84.9403    7.3691 C.ar    1  UNL1        0.2148
      4 N          62.5672   84.4353    5.9722 N.pl3   1  UNL1       -0.3274
      5 N          61.3587   86.0281    7.6314 N.ar    1  UNL1       -0.2139
      6 C          61.1492   86.5331    9.0282 C.ar    1  UNL1        0.0870
      7 C          60.1503   87.6209    9.2905 C.ar    1  UNL1        0.0193
      8 C          59.9408   88.1258   10.6873 C.ar    1  UNL1        0.0017
      9 C          60.7302   87.5430   11.8218 C.ar    1  UNL1        0.0047
     10 C          61.7291   86.4552   11.5595 C.ar    1  UNL1        0.0577
     11 C          61.9386   85.9503   10.1627 C.ar    1  UNL1        0.0536
     12 H          63.2229   83.7214    5.8001 H       1  UNL1        0.1452
     13 H          62.0491   84.8178    5.2276 H       1  UNL1        0.1452
     14 C          62.5185   85.8724   12.6940 C.2     1  UNL1        0.2494
     15 O          62.2804   84.4550   13.1232 O.2     1  UNL1       -0.2699
     16 N          63.5461   86.7069   13.3994 N.am    1  UNL1       -0.2702
     17 C          64.3355   86.1241   14.5339 C.3     1  UNL1        0.1155
     18 C          63.7843   88.1244   12.9703 C.3     1  UNL1        0.1205
     19 C          63.9490   89.2022   14.0003 C.ar    1  UNL1       -0.0023
     20 C          63.2340   89.0990   15.3149 C.ar    1  UNL1       -0.0026
     21 C          63.3988   90.1768   16.3450 C.ar    1  UNL1       -0.0003
     22 C          64.2785   91.3580   16.0605 C.ar    1  UNL1       -0.0000
     23 C          64.9935   91.4613   14.7460 C.ar    1  UNL1       -0.0003
     24 C          64.8288   90.3834   13.7158 C.ar    1  UNL1       -0.0026
     25 N          63.7270   84.2796   11.0349 N.pl3   1  UNL1       -0.3180
     26 H          63.8946   84.8148   11.8440 H       1  UNL1        0.1482
     27 C          64.2610   82.8813   10.9366 C.3     1  UNL1        0.0882
     28 C          64.1241   81.9428   12.0986 C.3     1  UNL1        0.0212
     29 C          62.1764   80.8881   13.4568 C.3     1  UNL1        0.0001
     30 C          62.9495   81.0131   12.1774 C.3     1  UNL1        0.0017
@<TRIPOS>BOND
     1    29    30    1
     2    30    28    1
     3    28    27    1
     4    27    25    1
     5    25     1    1
     6     1     2   ar
     7     2     3   ar
     8     3     4    1
     9     3     5   ar
    10     5     6   ar
    11     6     7   ar
    12     7     8   ar
    13     8     9   ar
    14     9    10   ar
    15    10    14    1
    16    14    15    2
    17    14    16   am
    18    16    17    1
    19    16    18    1
    20    18    19    1
    21    19    20   ar
    22    20    21   ar
    23    21    22   ar
    24    22    23   ar
    25    23    24   ar
    26    10    11   ar
    27    11     1   ar
    28    11     6   ar
    29    24    19   ar
    30    25    26    1
    31     4    12    1
    32     4    13    1
