@<TRIPOS>MOLECULE
*****
 33 37 0 0 0
SMALL
GASTEIGER

@<TRIPOS>ATOM
      1 O          63.5487   87.4033   13.4059 O.2     1  UNL1       -0.2698
      2 C          62.9614   86.4643   12.3942 C.2     1  UNL1        0.2507
      3 N          61.9867   86.9744   11.3746 N.am    1  UNL1       -0.2723
      4 C          61.3994   86.0354   10.3629 C.3     1  UNL1        0.1257
      5 C          60.4246   86.5455    9.3433 C.3     1  UNL1        0.1637
      6 O          60.0370   87.9945    9.3354 O.3     1  UNL1       -0.3502
      7 C          60.6242   88.9335   10.3471 C.3     1  UNL1        0.1622
      8 C          61.5990   88.4235   11.3667 C.3     1  UNL1        0.1097
      9 C          63.3491   85.0153   12.4021 C.ar    1  UNL1        0.0738
     10 C          63.6499   84.3123   11.1116 C.ar    1  UNL1        0.0175
     11 C          64.0375   82.8633   11.1195 C.ar    1  UNL1        0.0579
     12 CL         64.3383   82.1603    9.8290 Cl      1  UNL1       -0.0822
     13 C          64.1243   82.1173   12.4179 C.ar    1  UNL1        0.0130
     14 C          63.8235   82.8202   13.7084 C.ar    1  UNL1        0.0219
     15 C          63.4359   84.2692   13.7005 C.ar    1  UNL1        0.1073
     16 N          63.1350   84.9722   14.9910 N.ar    1  UNL1       -0.1477
     17 N          61.8043   85.0160   15.6817 N.ar    1  UNL1       -0.1447
     18 C          61.9589   85.8257   16.9350 C.ar    1  UNL1        0.1446
     19 C          63.3853   86.2822   17.0188 C.ar    1  UNL1        0.1446
     20 N          64.1122   85.7547   15.8174 N.ar    1  UNL1       -0.1447
     21 C          62.1863   89.3624   12.3784 C.3     1  UNL1        0.0510
     22 C          63.1934   90.3892   11.9527 C.ar    1  UNL1        0.0071
     23 C          64.2403   90.8585   12.9191 C.ar    1  UNL1        0.0012
     24 C          65.2475   91.8854   12.4935 C.ar    1  UNL1        0.0389
     25 C          65.2079   92.4429   11.1015 C.ar    1  UNL1        0.0054
     26 C          64.1610   91.9736   10.1352 C.ar    1  UNL1        0.0294
     27 C          63.1538   90.9468   10.5608 C.ar    1  UNL1        0.1362
     28 F          62.1070   90.4775    9.5944 F       1  UNL1       -0.2045
     29 C          66.2944   92.3546   13.4599 C.ar    1  UNL1        0.2037
     30 N          66.0406   93.0162   14.7819 N.ar    1  UNL1       -0.1829
     31 C          67.3682   93.3152   15.4130 C.ar    1  UNL1        0.3164
     32 O          68.4424   92.8384   14.4809 O.2     1  UNL1       -0.3274
     33 N          67.7787   92.2447   13.2738 N.ar    1  UNL1       -0.0554
@<TRIPOS>BOND
     1     1     2    2
     2     2     9    1
     3     9    10   ar
     4    10    11   ar
     5    11    12    1
     6    11    13   ar
     7    13    14   ar
     8    14    15   ar
     9    15    16    1
    10    16    17   ar
    11    17    18   ar
    12    18    19   ar
    13    19    20   ar
    14     2     3   am
    15     3     4    1
    16     4     5    1
    17     5     6    1
    18     6     7    1
    19     7     8    1
    20     8    21    1
    21    21    22    1
    22    22    23   ar
    23    23    24   ar
    24    24    29    1
    25    29    30   ar
    26    30    31   ar
    27    31    32   ar
    28    32    33   ar
    29    24    25   ar
    30    25    26   ar
    31    26    27   ar
    32    27    28    1
    33    15     9   ar
    34    20    16   ar
    35     8     3    1
    36    27    22   ar
    37    33    29   ar
@<TRIPOS>MOLECULE
*****
 33 37 0 0 0
SMALL
GASTEIGER

@<TRIPOS>ATOM
      1 O          63.4221   87.3893   13.1726 O.2     1  UNL1       -0.2698
      2 C          62.7549   87.2618   11.8352 C.2     1  UNL1        0.2507
      3 N          61.9344   88.3954   11.2953 N.am    1  UNL1       -0.2723
      4 C          61.2672   88.2679    9.9579 C.3     1  UNL1        0.1257
      5 C          60.4467   89.4017    9.4180 C.3     1  UNL1        0.1637
      6 O          60.2934   90.6628   10.2154 O.3     1  UNL1       -0.3502
      7 C          60.9606   90.7903   11.5528 C.3     1  UNL1        0.1622
      8 C          61.7811   89.6567   12.0927 C.3     1  UNL1        0.1097
      9 C          62.9082   86.0005   11.0378 C.ar    1  UNL1        0.0738
     10 C          62.8052   86.0418    9.5419 C.ar    1  UNL1        0.0175
     11 C          62.9585   84.7807    8.7445 C.ar    1  UNL1        0.0579
     12 CL         62.8554   84.8220    7.2486 Cl      1  UNL1       -0.0822
     13 C          63.2148   83.4782    9.4430 C.ar    1  UNL1        0.0130
     14 C          63.3179   83.4370   10.9388 C.ar    1  UNL1        0.0219
     15 C          63.1646   84.6981   11.7363 C.ar    1  UNL1        0.1073
     16 N          63.2677   84.6568   13.2322 N.ar    1  UNL1       -0.1477
     17 N          62.1176   84.6245   14.1946 N.ar    1  UNL1       -0.1447
     18 C          62.6780   84.5883   15.5855 C.ar    1  UNL1        0.1446
     19 C          64.1745   84.5983   15.4827 C.ar    1  UNL1        0.1446
     20 N          64.5389   84.6406   14.0283 N.ar    1  UNL1       -0.1447
     21 C          62.4483   89.7842   13.4301 C.3     1  UNL1        0.0510
     22 C          63.6724   90.6382   13.5792 C.ar    1  UNL1        0.0071
     23 C          64.2697   91.3089   12.3779 C.ar    1  UNL1        0.0012
     24 C          65.4939   92.1629   12.5269 C.ar    1  UNL1        0.0389
     25 C          66.1207   92.3461   13.8773 C.ar    1  UNL1        0.0054
     26 C          65.5233   91.6752   15.0787 C.ar    1  UNL1        0.0294
     27 C          64.2992   90.8213   14.9296 C.ar    1  UNL1        0.1362
     28 F          63.7019   90.1505   16.1309 F       1  UNL1       -0.2045
     29 C          66.0912   92.8337   11.3256 C.ar    1  UNL1        0.2037
     30 N          67.3994   92.4843   10.6801 N.ar    1  UNL1       -0.1829
     31 C          67.6019   93.4064    9.5144 C.ar    1  UNL1        0.3164
     32 O          66.4189   94.3256    9.4395 O.2     1  UNL1       -0.3274
     33 N          65.4853   93.9717   10.5588 N.ar    1  UNL1       -0.0554
@<TRIPOS>BOND
     1     1     2    2
     2     2     9    1
     3     9    10   ar
     4    10    11   ar
     5    11    12    1
     6    11    13   ar
     7    13    14   ar
     8    14    15   ar
     9    15    16    1
    10    16    17   ar
    11    17    18   ar
    12    18    19   ar
    13    19    20   ar
    14     2     3   am
    15     3     4    1
    16     4     5    1
    17     5     6    1
    18     6     7    1
    19     7     8    1
    20     8    21    1
    21    21    22    1
    22    22    23   ar
    23    23    24   ar
    24    24    29    1
    25    29    30   ar
    26    30    31   ar
    27    31    32   ar
    28    32    33   ar
    29    24    25   ar
    30    25    26   ar
    31    26    27   ar
    32    27    28    1
    33    15     9   ar
    34    20    16   ar
    35     8     3    1
    36    27    22   ar
    37    33    29   ar
@<TRIPOS>MOLECULE
*****
 33 37 0 0 0
SMALL
GASTEIGER

@<TRIPOS>ATOM
      1 O          63.0263   89.6631   10.7390 O.2     1  UNL1       -0.2698
      2 C          62.6637   88.2226   10.9475 C.2     1  UNL1        0.2507
      3 N          63.1115   87.5084   12.1882 N.am    1  UNL1       -0.2723
      4 C          62.7490   86.0679   12.3966 C.3     1  UNL1        0.1257
      5 C          63.1969   85.3538   13.6374 C.3     1  UNL1        0.1637
      6 O          64.0072   86.0802   14.6697 O.3     1  UNL1       -0.3502
      7 C          64.3698   87.5207   14.4612 C.3     1  UNL1        0.1622
      8 C          63.9220   88.2348   13.2205 C.3     1  UNL1        0.1097
      9 C          61.8533   87.4962    9.9151 C.ar    1  UNL1        0.0738
     10 C          62.5096   86.4873    9.0200 C.ar    1  UNL1        0.0175
     11 C          61.6993   85.7609    7.9877 C.ar    1  UNL1        0.0579
     12 CL         62.3556   84.7520    7.0925 Cl      1  UNL1       -0.0822
     13 C          60.2325   86.0435    7.8506 C.ar    1  UNL1        0.0130
     14 C          59.5762   87.0524    8.7457 C.ar    1  UNL1        0.0219
     15 C          60.3865   87.7787    9.7780 C.ar    1  UNL1        0.1073
     16 N          59.7302   88.7876   10.6732 N.ar    1  UNL1       -0.1477
     17 N          59.6143   90.2593   10.4070 N.ar    1  UNL1       -0.1447
     18 C          58.8869   90.8832   11.5610 C.ar    1  UNL1        0.1446
     19 C          58.5533   89.7971   12.5404 C.ar    1  UNL1        0.1446
     20 N          59.0744   88.5020   11.9917 N.ar    1  UNL1       -0.1447
     21 C          64.2845   89.6754   13.0120 C.3     1  UNL1        0.0510
     22 C          64.6556   90.5328   14.1855 C.ar    1  UNL1        0.0071
     23 C          65.9780   91.2403   14.2091 C.ar    1  UNL1        0.0012
     24 C          66.3491   92.0978   15.3826 C.ar    1  UNL1        0.0389
     25 C          65.3977   92.2476   16.5326 C.ar    1  UNL1        0.0054
     26 C          64.0752   91.5401   16.5090 C.ar    1  UNL1        0.0294
     27 C          63.7042   90.6827   15.3355 C.ar    1  UNL1        0.1362
     28 F          62.3818   89.9751   15.3119 F       1  UNL1       -0.2045
     29 C          67.6715   92.8053   15.4062 C.ar    1  UNL1        0.2037
     30 N          68.0495   93.9375   16.3145 N.ar    1  UNL1       -0.1829
     31 C          69.4597   94.3368   15.9952 C.ar    1  UNL1        0.3164
     32 O          69.9532   93.4513   14.8896 O.2     1  UNL1       -0.3274
     33 N          68.8480   92.5048   14.5255 N.ar    1  UNL1       -0.0554
@<TRIPOS>BOND
     1     1     2    2
     2     2     9    1
     3     9    10   ar
     4    10    11   ar
     5    11    12    1
     6    11    13   ar
     7    13    14   ar
     8    14    15   ar
     9    15    16    1
    10    16    17   ar
    11    17    18   ar
    12    18    19   ar
    13    19    20   ar
    14     2     3   am
    15     3     4    1
    16     4     5    1
    17     5     6    1
    18     6     7    1
    19     7     8    1
    20     8    21    1
    21    21    22    1
    22    22    23   ar
    23    23    24   ar
    24    24    29    1
    25    29    30   ar
    26    30    31   ar
    27    31    32   ar
    28    32    33   ar
    29    24    25   ar
    30    25    26   ar
    31    26    27   ar
    32    27    28    1
    33    15     9   ar
    34    20    16   ar
    35     8     3    1
    36    27    22   ar
    37    33    29   ar
@<TRIPOS>MOLECULE
*****
 33 37 0 0 0
SMALL
GASTEIGER

@<TRIPOS>ATOM
      1 O          61.6896   85.7284   13.0726 O.2     1  UNL1       -0.2698
      2 C          62.3350   84.6858   12.2086 C.2     1  UNL1        0.2507
      3 N          62.6055   84.9733   10.7615 N.am    1  UNL1       -0.2723
      4 C          63.2509   83.9307    9.8976 C.3     1  UNL1        0.1257
      5 C          63.5214   84.2182    8.4504 C.3     1  UNL1        0.1637
      6 O          63.1464   85.5484    7.8672 O.3     1  UNL1       -0.3502
      7 C          62.5010   86.5910    8.7312 C.3     1  UNL1        0.1622
      8 C          62.2305   86.3035   10.1783 C.3     1  UNL1        0.1097
      9 C          62.7100   83.3556   12.7919 C.ar    1  UNL1        0.0738
     10 C          62.5028   82.1019   11.9948 C.ar    1  UNL1        0.0175
     11 C          62.8777   80.7718   12.5779 C.ar    1  UNL1        0.0579
     12 CL         62.6705   79.5181   11.7808 Cl      1  UNL1       -0.0822
     13 C          63.4598   80.6953   13.9582 C.ar    1  UNL1        0.0130
     14 C          63.6671   81.9490   14.7553 C.ar    1  UNL1        0.0219
     15 C          63.2922   83.2791   14.1721 C.ar    1  UNL1        0.1073
     16 N          63.4994   84.5328   14.9692 N.ar    1  UNL1       -0.1477
     17 N          64.5729   85.5553   14.7411 N.ar    1  UNL1       -0.1447
     18 C          64.4065   86.6386   15.7653 C.ar    1  UNL1        0.1446
     19 C          63.2301   86.2855   16.6264 C.ar    1  UNL1        0.1446
     20 N          62.6695   84.9841   16.1344 N.ar    1  UNL1       -0.1447
     21 C          61.5851   87.3461   11.0422 C.3     1  UNL1        0.0510
     22 C          62.1516   88.7341   11.0926 C.ar    1  UNL1        0.0071
     23 C          62.9334   89.1819   12.2918 C.ar    1  UNL1        0.0012
     24 C          63.5000   90.5700   12.3422 C.ar    1  UNL1        0.0389
     25 C          63.2847   91.5101   11.1933 C.ar    1  UNL1        0.0054
     26 C          62.5028   91.0621    9.9941 C.ar    1  UNL1        0.0294
     27 C          61.9363   89.6742    9.9437 C.ar    1  UNL1        0.1362
     28 F          61.1545   89.2263    8.7445 F       1  UNL1       -0.2045
     29 C          64.2818   91.0178   13.5414 C.ar    1  UNL1        0.2037
     30 N          65.7583   91.2785   13.5842 N.ar    1  UNL1       -0.1829
     31 C          66.1134   91.7054   14.9776 C.ar    1  UNL1        0.3164
     32 O          64.8563   91.7087   15.7960 O.2     1  UNL1       -0.3274
     33 N          63.7243   91.2837   14.9083 N.ar    1  UNL1       -0.0554
@<TRIPOS>BOND
     1     1     2    2
     2     2     9    1
     3     9    10   ar
     4    10    11   ar
     5    11    12    1
     6    11    13   ar
     7    13    14   ar
     8    14    15   ar
     9    15    16    1
    10    16    17   ar
    11    17    18   ar
    12    18    19   ar
    13    19    20   ar
    14     2     3   am
    15     3     4    1
    16     4     5    1
    17     5     6    1
    18     6     7    1
    19     7     8    1
    20     8    21    1
    21    21    22    1
    22    22    23   ar
    23    23    24   ar
    24    24    29    1
    25    29    30   ar
    26    30    31   ar
    27    31    32   ar
    28    32    33   ar
    29    24    25   ar
    30    25    26   ar
    31    26    27   ar
    32    27    28    1
    33    15     9   ar
    34    20    16   ar
    35     8     3    1
    36    27    22   ar
    37    33    29   ar
@<TRIPOS>MOLECULE
*****
 33 37 0 0 0
SMALL
GASTEIGER

@<TRIPOS>ATOM
      1 O          62.5562   90.2313   11.3920 O.2     1  UNL1       -0.2698
      2 C          62.6221   88.7360   11.4903 C.2     1  UNL1        0.2507
      3 N          63.3072   88.0906   12.6582 N.am    1  UNL1       -0.2723
      4 C          63.3732   86.5953   12.7565 C.3     1  UNL1        0.1257
      5 C          64.0583   85.9500   13.9245 C.3     1  UNL1        0.1637
      6 O          64.6774   86.7999   14.9942 O.3     1  UNL1       -0.3502
      7 C          64.6115   88.2952   14.8959 C.3     1  UNL1        0.1622
      8 C          63.9264   88.9406   13.7280 C.3     1  UNL1        0.1097
      9 C          62.0029   87.8861   10.4206 C.ar    1  UNL1        0.0738
     10 C          62.8472   86.9103    9.6555 C.ar    1  UNL1        0.0175
     11 C          62.2281   86.0604    8.5858 C.ar    1  UNL1        0.0579
     12 CL         63.0723   85.0847    7.8208 Cl      1  UNL1       -0.0822
     13 C          60.7647   86.1862    8.2812 C.ar    1  UNL1        0.0130
     14 C          59.9205   87.1619    9.0462 C.ar    1  UNL1        0.0219
     15 C          60.5396   88.0118   10.1159 C.ar    1  UNL1        0.1073
     16 N          59.6954   88.9876   10.8810 N.ar    1  UNL1       -0.1477
     17 N          59.4818   90.4309   10.5331 N.ar    1  UNL1       -0.1447
     18 C          58.5709   91.0267   11.5653 C.ar    1  UNL1        0.1446
     19 C          58.2217   89.9515   12.5512 C.ar    1  UNL1        0.1446
     20 N          58.9167   88.6912   12.1282 N.ar    1  UNL1       -0.1447
     21 C          63.8605   90.4359   13.6297 C.3     1  UNL1        0.0510
     22 C          65.1234   91.2360   13.5085 C.ar    1  UNL1        0.0071
     23 C          65.6565   91.5953   12.1533 C.ar    1  UNL1        0.0012
     24 C          66.9196   92.3954   12.0321 C.ar    1  UNL1        0.0389
     25 C          67.6494   92.8362   13.2662 C.ar    1  UNL1        0.0054
     26 C          67.1162   92.4770   14.6215 C.ar    1  UNL1        0.0294
     27 C          65.8533   91.6769   14.7426 C.ar    1  UNL1        0.1362
     28 F          65.3202   91.3176   16.0978 F       1  UNL1       -0.2045
     29 C          67.4527   92.7546   10.6769 C.ar    1  UNL1        0.2037
     30 N          67.4464   94.1224   10.0611 N.ar    1  UNL1       -0.1829
     31 C          68.0755   94.0223    8.7031 C.ar    1  UNL1        0.3164
     32 O          68.4706   92.5926    8.4795 O.2     1  UNL1       -0.3274
     33 N          68.0857   91.8092    9.6994 N.ar    1  UNL1       -0.0554
@<TRIPOS>BOND
     1     1     2    2
     2     2     9    1
     3     9    10   ar
     4    10    11   ar
     5    11    12    1
     6    11    13   ar
     7    13    14   ar
     8    14    15   ar
     9    15    16    1
    10    16    17   ar
    11    17    18   ar
    12    18    19   ar
    13    19    20   ar
    14     2     3   am
    15     3     4    1
    16     4     5    1
    17     5     6    1
    18     6     7    1
    19     7     8    1
    20     8    21    1
    21    21    22    1
    22    22    23   ar
    23    23    24   ar
    24    24    29    1
    25    29    30   ar
    26    30    31   ar
    27    31    32   ar
    28    32    33   ar
    29    24    25   ar
    30    25    26   ar
    31    26    27   ar
    32    27    28    1
    33    15     9   ar
    34    20    16   ar
    35     8     3    1
    36    27    22   ar
    37    33    29   ar
@<TRIPOS>MOLECULE
*****
 33 37 0 0 0
SMALL
GASTEIGER

@<TRIPOS>ATOM
      1 O          62.9230   87.6272   12.8230 O.2     1  UNL1       -0.2698
      2 C          62.8121   88.8431   11.9516 C.2     1  UNL1        0.2507
      3 N          61.8407   88.8608   10.8088 N.am    1  UNL1       -0.2723
      4 C          61.7297   90.0767    9.9375 C.3     1  UNL1        0.1257
      5 C          60.7582   90.0943    8.7947 C.3     1  UNL1        0.1637
      6 O          59.8977   88.8960    8.5233 O.3     1  UNL1       -0.3502
      7 C          60.0086   87.6801    9.3946 C.3     1  UNL1        0.1622
      8 C          60.9801   87.6625   10.5374 C.3     1  UNL1        0.1097
      9 C          63.6727   90.0414   12.2230 C.ar    1  UNL1        0.0738
     10 C          64.0280   90.9779   11.1065 C.ar    1  UNL1        0.0175
     11 C          64.8885   92.1762   11.3779 C.ar    1  UNL1        0.0579
     12 CL         65.2439   93.1127   10.2614 Cl      1  UNL1       -0.0822
     13 C          65.3937   92.4379   12.7658 C.ar    1  UNL1        0.0130
     14 C          65.0383   91.5013   13.8823 C.ar    1  UNL1        0.0219
     15 C          64.1778   90.3031   13.6109 C.ar    1  UNL1        0.1073
     16 N          63.8224   89.3665   14.7274 N.ar    1  UNL1       -0.1477
     17 N          64.3384   87.9692   14.9041 N.ar    1  UNL1       -0.1447
     18 C          63.7236   87.4019   16.1492 C.ar    1  UNL1        0.1446
     19 C          62.8275   88.4487   16.7420 C.ar    1  UNL1        0.1446
     20 N          62.8887   89.6628   15.8633 N.ar    1  UNL1       -0.1447
     21 C          61.0910   86.4466   11.4087 C.3     1  UNL1        0.0510
     22 C          62.0030   85.3226   11.0153 C.ar    1  UNL1        0.0071
     23 C          62.1631   84.1356   11.9183 C.ar    1  UNL1        0.0012
     24 C          63.0752   83.0116   11.5249 C.ar    1  UNL1        0.0389
     25 C          63.8271   83.0746   10.2285 C.ar    1  UNL1        0.0054
     26 C          63.6670   84.2616    9.3255 C.ar    1  UNL1        0.0294
     27 C          62.7550   85.3856    9.7189 C.ar    1  UNL1        0.1362
     28 F          62.5949   86.5726    8.8159 F       1  UNL1       -0.2045
     29 C          63.2353   81.8246   12.4278 C.ar    1  UNL1        0.2037
     30 N          62.5018   80.5215   12.3095 N.ar    1  UNL1       -0.1829
     31 C          62.9702   79.6238   13.4162 C.ar    1  UNL1        0.3164
     32 O          63.9932   80.3721   14.2185 O.2     1  UNL1       -0.3274
     33 N          64.1570   81.7322   13.6076 N.ar    1  UNL1       -0.0554
@<TRIPOS>BOND
     1     1     2    2
     2     2     9    1
     3     9    10   ar
     4    10    11   ar
     5    11    12    1
     6    11    13   ar
     7    13    14   ar
     8    14    15   ar
     9    15    16    1
    10    16    17   ar
    11    17    18   ar
    12    18    19   ar
    13    19    20   ar
    14     2     3   am
    15     3     4    1
    16     4     5    1
    17     5     6    1
    18     6     7    1
    19     7     8    1
    20     8    21    1
    21    21    22    1
    22    22    23   ar
    23    23    24   ar
    24    24    29    1
    25    29    30   ar
    26    30    31   ar
    27    31    32   ar
    28    32    33   ar
    29    24    25   ar
    30    25    26   ar
    31    26    27   ar
    32    27    28    1
    33    15     9   ar
    34    20    16   ar
    35     8     3    1
    36    27    22   ar
    37    33    29   ar
@<TRIPOS>MOLECULE
*****
 33 37 0 0 0
SMALL
GASTEIGER

@<TRIPOS>ATOM
      1 O          63.6893   89.1900   11.8419 O.2     1  UNL1       -0.2698
      2 C          63.5028   88.3452   13.0672 C.2     1  UNL1        0.2507
      3 N          63.4454   88.9893   14.4207 N.am    1  UNL1       -0.2723
      4 C          63.2590   88.1444   15.6460 C.3     1  UNL1        0.1257
      5 C          63.2016   88.7886   16.9995 C.3     1  UNL1        0.1637
      6 O          63.3307   90.2775   17.1276 O.3     1  UNL1       -0.3502
      7 C          63.5172   91.1223   15.9022 C.3     1  UNL1        0.1622
      8 C          63.5746   90.4782   14.5488 C.3     1  UNL1        0.1097
      9 C          63.3737   86.8562   12.9391 C.ar    1  UNL1        0.0738
     10 C          64.1733   85.9545   13.8321 C.ar    1  UNL1        0.0175
     11 C          64.0443   84.4656   13.7040 C.ar    1  UNL1        0.0579
     12 CL         64.8439   83.5638   14.5970 Cl      1  UNL1       -0.0822
     13 C          63.1155   83.8784   12.6829 C.ar    1  UNL1        0.0130
     14 C          62.3159   84.7801   11.7899 C.ar    1  UNL1        0.0219
     15 C          62.4450   86.2690   11.9180 C.ar    1  UNL1        0.1073
     16 N          61.6453   87.1708   11.0250 N.ar    1  UNL1       -0.1477
     17 N          61.9108   87.4344    9.5725 N.ar    1  UNL1       -0.1447
     18 C          60.8694   88.3937    9.0775 C.ar    1  UNL1        0.1446
     19 C          59.9602   88.7231   10.2242 C.ar    1  UNL1        0.1446
     20 N          60.4397   87.9672   11.4278 N.ar    1  UNL1       -0.1447
     21 C          63.7610   91.3231   13.3235 C.3     1  UNL1        0.0510
     22 C          65.1240   91.8389   12.9684 C.ar    1  UNL1        0.0071
     23 C          65.2850   92.8231   11.8480 C.ar    1  UNL1        0.0012
     24 C          66.6481   93.3390   11.4929 C.ar    1  UNL1        0.0389
     25 C          67.8501   92.8706   12.2582 C.ar    1  UNL1        0.0054
     26 C          67.6890   91.8863   13.3787 C.ar    1  UNL1        0.0294
     27 C          66.3260   91.3705   13.7337 C.ar    1  UNL1        0.1362
     28 F          66.1651   90.3863   14.8541 F       1  UNL1       -0.2045
     29 C          66.8090   94.3232   10.3725 C.ar    1  UNL1        0.2037
     30 N          65.8449   95.4144   10.0122 N.ar    1  UNL1       -0.1829
     31 C          66.4024   96.1546    8.8327 C.ar    1  UNL1        0.3164
     32 O          67.7111   95.5210    8.4640 O.2     1  UNL1       -0.3274
     33 N          67.9624   94.3892    9.4157 N.ar    1  UNL1       -0.0554
@<TRIPOS>BOND
     1     1     2    2
     2     2     9    1
     3     9    10   ar
     4    10    11   ar
     5    11    12    1
     6    11    13   ar
     7    13    14   ar
     8    14    15   ar
     9    15    16    1
    10    16    17   ar
    11    17    18   ar
    12    18    19   ar
    13    19    20   ar
    14     2     3   am
    15     3     4    1
    16     4     5    1
    17     5     6    1
    18     6     7    1
    19     7     8    1
    20     8    21    1
    21    21    22    1
    22    22    23   ar
    23    23    24   ar
    24    24    29    1
    25    29    30   ar
    26    30    31   ar
    27    31    32   ar
    28    32    33   ar
    29    24    25   ar
    30    25    26   ar
    31    26    27   ar
    32    27    28    1
    33    15     9   ar
    34    20    16   ar
    35     8     3    1
    36    27    22   ar
    37    33    29   ar
@<TRIPOS>MOLECULE
*****
 33 37 0 0 0
SMALL
GASTEIGER

@<TRIPOS>ATOM
      1 O          63.2549   88.4013   11.6386 O.2     1  UNL1       -0.2698
      2 C          63.2780   87.6658   12.9457 C.2     1  UNL1        0.2507
      3 N          63.2712   88.4299   14.2365 N.am    1  UNL1       -0.2723
      4 C          63.2943   87.6944   15.5436 C.3     1  UNL1        0.1257
      5 C          63.2876   88.4586   16.8344 C.3     1  UNL1        0.1637
      6 O          63.2577   89.9582   16.8180 O.3     1  UNL1       -0.3502
      7 C          63.2346   90.6937   15.5109 C.3     1  UNL1        0.1622
      8 C          63.2414   89.9296   14.2202 C.3     1  UNL1        0.1097
      9 C          63.3079   86.1661   12.9621 C.ar    1  UNL1        0.0738
     10 C          64.0945   85.4431   14.0149 C.ar    1  UNL1        0.0175
     11 C          64.1244   83.9435   14.0312 C.ar    1  UNL1        0.0579
     12 CL         64.9111   83.2205   15.0840 Cl      1  UNL1       -0.0822
     13 C          63.3677   83.1670   12.9948 C.ar    1  UNL1        0.0130
     14 C          62.5810   83.8900   11.9420 C.ar    1  UNL1        0.0219
     15 C          62.5511   85.3896   11.9256 C.ar    1  UNL1        0.1073
     16 N          61.7645   86.1126   10.8728 N.ar    1  UNL1       -0.1477
     17 N          62.0125   86.0590    9.3945 N.ar    1  UNL1       -0.1447
     18 C          60.9930   86.9295    8.7215 C.ar    1  UNL1        0.1446
     19 C          60.1148   87.5211    9.7839 C.ar    1  UNL1        0.1446
     20 N          60.5916   87.0162   11.1135 N.ar    1  UNL1       -0.1447
     21 C          63.2182   90.6651   12.9130 C.3     1  UNL1        0.0510
     22 C          64.4101   91.4679   12.4830 C.ar    1  UNL1        0.0071
     23 C          65.4910   91.7934   13.4707 C.ar    1  UNL1        0.0012
     24 C          66.6829   92.5963   13.0407 C.ar    1  UNL1        0.0389
     25 C          66.7938   93.0736   11.6230 C.ar    1  UNL1        0.0054
     26 C          65.7128   92.7480   10.6353 C.ar    1  UNL1        0.0294
     27 C          64.5210   91.9452   11.0653 C.ar    1  UNL1        0.1362
     28 F          63.4401   91.6196   10.0776 F       1  UNL1       -0.2045
     29 C          67.7638   92.9218   14.0284 C.ar    1  UNL1        0.2037
     30 N          67.6144   93.7841   15.2467 N.ar    1  UNL1       -0.1829
     31 C          68.9422   93.8374   15.9425 C.ar    1  UNL1        0.3164
     32 O          69.9123   93.0081   15.1542 O.2     1  UNL1       -0.3274
     33 N          69.1840   92.4423   13.9713 N.ar    1  UNL1       -0.0554
@<TRIPOS>BOND
     1     1     2    2
     2     2     9    1
     3     9    10   ar
     4    10    11   ar
     5    11    12    1
     6    11    13   ar
     7    13    14   ar
     8    14    15   ar
     9    15    16    1
    10    16    17   ar
    11    17    18   ar
    12    18    19   ar
    13    19    20   ar
    14     2     3   am
    15     3     4    1
    16     4     5    1
    17     5     6    1
    18     6     7    1
    19     7     8    1
    20     8    21    1
    21    21    22    1
    22    22    23   ar
    23    23    24   ar
    24    24    29    1
    25    29    30   ar
    26    30    31   ar
    27    31    32   ar
    28    32    33   ar
    29    24    25   ar
    30    25    26   ar
    31    26    27   ar
    32    27    28    1
    33    15     9   ar
    34    20    16   ar
    35     8     3    1
    36    27    22   ar
    37    33    29   ar
@<TRIPOS>MOLECULE
*****
 33 37 0 0 0
SMALL
GASTEIGER

@<TRIPOS>ATOM
      1 O          63.0232   92.7192   -2.8868 O.2     1  UNL1       -0.2698
      2 C          63.7741   93.9935   -3.1362 C.2     1  UNL1        0.2507
      3 N          64.3084   94.7876   -1.9813 N.am    1  UNL1       -0.2723
      4 C          65.0593   96.0619   -2.2308 C.3     1  UNL1        0.1257
      5 C          65.5936   96.8560   -1.0757 C.3     1  UNL1        0.1637
      6 O          65.3769   96.3758    0.3287 O.3     1  UNL1       -0.3502
      7 C          64.6260   95.1015    0.5781 C.3     1  UNL1        0.1622
      8 C          64.0917   94.3074   -0.5768 C.3     1  UNL1        0.1097
      9 C          63.9908   94.4737   -4.5407 C.ar    1  UNL1        0.0738
     10 C          65.3078   94.2385   -5.2190 C.ar    1  UNL1        0.0175
     11 C          65.5245   94.7186   -6.6234 C.ar    1  UNL1        0.0579
     12 CL         66.8416   94.4834   -7.3017 Cl      1  UNL1       -0.0822
     13 C          64.4242   95.4340   -7.3496 C.ar    1  UNL1        0.0130
     14 C          63.1071   95.6693   -6.6713 C.ar    1  UNL1        0.0219
     15 C          62.8904   95.1891   -5.2669 C.ar    1  UNL1        0.1073
     16 N          61.5734   95.4244   -4.5887 N.ar    1  UNL1       -0.1477
     17 N          61.2820   96.4902   -3.5742 N.ar    1  UNL1       -0.1447
     18 C          59.8450   96.3597   -3.1644 C.ar    1  UNL1        0.1446
     19 C          59.2482   95.2131   -3.9255 C.ar    1  UNL1        0.1446
     20 N          60.3164   94.6351   -4.8057 N.ar    1  UNL1       -0.1447
     21 C          63.3408   93.0331   -0.3273 C.3     1  UNL1        0.0510
     22 C          62.0439   93.0620    0.4257 C.ar    1  UNL1        0.0071
     23 C          60.7532   93.2651   -0.3111 C.ar    1  UNL1        0.0012
     24 C          59.4562   93.2940    0.4419 C.ar    1  UNL1        0.0389
     25 C          59.4499   93.1197    1.9318 C.ar    1  UNL1        0.0054
     26 C          60.7407   92.9165    2.6686 C.ar    1  UNL1        0.0294
     27 C          62.0376   92.8877    1.9155 C.ar    1  UNL1        0.1362
     28 F          63.3282   92.6845    2.6523 F       1  UNL1       -0.2045
     29 C          58.1655   93.4971   -0.2948 C.ar    1  UNL1        0.2037
     30 N          57.6090   94.8128   -0.7522 N.ar    1  UNL1       -0.1829
     31 C          56.3043   94.5491   -1.4436 C.ar    1  UNL1        0.3164
     32 O          56.0544   93.0703   -1.4137 O.2     1  UNL1       -0.3274
     33 N          57.2047   92.4202   -0.7037 N.ar    1  UNL1       -0.0554
@<TRIPOS>BOND
     1     1     2    2
     2     2     9    1
     3     9    10   ar
     4    10    11   ar
     5    11    12    1
     6    11    13   ar
     7    13    14   ar
     8    14    15   ar
     9    15    16    1
    10    16    17   ar
    11    17    18   ar
    12    18    19   ar
    13    19    20   ar
    14     2     3   am
    15     3     4    1
    16     4     5    1
    17     5     6    1
    18     6     7    1
    19     7     8    1
    20     8    21    1
    21    21    22    1
    22    22    23   ar
    23    23    24   ar
    24    24    29    1
    25    29    30   ar
    26    30    31   ar
    27    31    32   ar
    28    32    33   ar
    29    24    25   ar
    30    25    26   ar
    31    26    27   ar
    32    27    28    1
    33    15     9   ar
    34    20    16   ar
    35     8     3    1
    36    27    22   ar
    37    33    29   ar
