@<TRIPOS>MOLECULE
*****
 31 33 0 0 0
SMALL
GASTEIGER

@<TRIPOS>ATOM
      1 N          61.6341   89.9411   12.4400 N.3     1  UNL1       -0.1788
      2 H          61.3584   90.8548   12.0802 H       1  UNL1        0.1488
      3 S          61.4341   88.9582   11.3247 S.O2    1  UNL1        0.0622
      4 O          62.6528   89.4943   10.6338 O.2     1  UNL1       -0.1529
      5 O          60.2154   88.4221   12.0155 O.2     1  UNL1       -0.1529
      6 C          61.2342   87.9754   10.2093 C.ar    1  UNL1        0.1452
      7 C          60.4794   88.3814    8.9782 C.ar    1  UNL1        0.0620
      8 N          59.9245   89.7702    8.8626 N.pl3   1  UNL1       -0.3559
      9 C          60.2795   87.3984    7.8629 C.ar    1  UNL1        0.0269
     10 C          60.8343   86.0096    7.9786 C.ar    1  UNL1        0.0598
     11 CL         60.6344   85.0268    6.8632 Cl      1  UNL1       -0.0822
     12 C          61.5891   85.6038    9.2097 C.ar    1  UNL1        0.0242
     13 C          61.7890   86.5866   10.3250 C.ar    1  UNL1        0.0783
     14 CL         62.5438   86.1807   11.5560 Cl      1  UNL1       -0.0808
     15 H          60.0557   90.4152    9.5946 H       1  UNL1        0.1424
     16 H          59.4291   90.0366    8.0546 H       1  UNL1        0.1424
     17 C          62.9910   90.1099   13.0566 C.3     1  UNL1        0.0980
     18 C          64.2939   88.7055   14.8115 C.3     1  UNL1        0.0015
     19 C          63.8119   88.9038   13.4050 C.3     1  UNL1        0.0194
     20 C          63.5271   91.4851   13.3248 C.3     1  UNL1        0.1234
     21 N          64.9570   91.8078   13.0065 N.ar    1  UNL1       -0.3240
     22 C          65.5451   91.9459   11.6335 C.ar    1  UNL1        0.0863
     23 C          67.0014   92.2726   11.7838 C.ar    1  UNL1        0.0870
     24 C          67.3133   92.3364   13.2497 C.ar    1  UNL1        0.0269
     25 C          68.5845   92.6190   13.9940 C.ar    1  UNL1        0.0022
     26 C          68.5923   92.6142   15.4939 C.ar    1  UNL1        0.0001
     27 C          67.3287   92.3270   16.2496 C.ar    1  UNL1        0.0015
     28 C          66.0575   92.0444   15.5053 C.ar    1  UNL1        0.0172
     29 C          66.0498   92.0491   14.0053 C.ar    1  UNL1        0.0606
     30 C          67.9749   92.4963   10.6648 C.1     1  UNL1        0.1020
     31 N          68.9484   92.7199    9.5456 N.1     1  UNL1       -0.1908
@<TRIPOS>BOND
     1    18    19    1
     2    17    19    1
     3    17    20    1
     4    20    21    1
     5    21    22   ar
     6    22    23   ar
     7    23    30    1
     8    30    31    3
     9    23    24   ar
    10    24    25   ar
    11    25    26   ar
    12    26    27   ar
    13    27    28   ar
    14    28    29   ar
    15    17     1    1
    16     1     3    1
    17     3     4    2
    18     3     5    2
    19     3     6    1
    20     6     7   ar
    21     7     8    1
    22     7     9   ar
    23     9    10   ar
    24    10    11    1
    25    10    12   ar
    26    12    13   ar
    27    13    14    1
    28    29    21   ar
    29    13     6   ar
    30    29    24   ar
    31     1     2    1
    32     8    15    1
    33     8    16    1
@<TRIPOS>MOLECULE
*****
 31 33 0 0 0
SMALL
GASTEIGER

@<TRIPOS>ATOM
      1 N          63.1144   87.2232   12.5558 N.3     1  UNL1       -0.1788
      2 H          62.7297   87.6610   13.3929 H       1  UNL1        0.1488
      3 S          62.9244   85.7438   12.7145 S.O2    1  UNL1        0.0622
      4 O          64.2836   85.6364   13.3397 O.2     1  UNL1       -0.1529
      5 O          61.5651   85.8513   12.0893 O.2     1  UNL1       -0.1529
      6 C          62.7344   84.2644   12.8733 C.ar    1  UNL1        0.1452
      7 C          62.2740   83.7040   14.1863 C.ar    1  UNL1        0.0620
      8 N          62.0035   84.6230   15.3405 N.pl3   1  UNL1       -0.3559
      9 C          62.0840   82.2245   14.3450 C.ar    1  UNL1        0.0269
     10 C          62.3545   81.3055   13.1908 C.ar    1  UNL1        0.0598
     11 CL         62.1645   79.8261   13.3495 Cl      1  UNL1       -0.0822
     12 C          62.8149   81.8660   11.8778 C.ar    1  UNL1        0.0242
     13 C          63.0049   83.3454   11.7191 C.ar    1  UNL1        0.0783
     14 CL         63.4653   83.9058   10.4061 Cl      1  UNL1       -0.0808
     15 H          62.1282   85.5940   15.2363 H       1  UNL1        0.1424
     16 H          61.7013   84.2552   16.2023 H       1  UNL1        0.1424
     17 C          62.5136   87.9347   11.3799 C.3     1  UNL1        0.0980
     18 C          61.1449   87.5938    9.1981 C.3     1  UNL1        0.0015
     19 C          62.2786   87.1956   10.0960 C.3     1  UNL1        0.0194
     20 C          62.1477   89.3855   11.4880 C.3     1  UNL1        0.1234
     21 N          63.2213   90.4192   11.6575 N.ar    1  UNL1       -0.3240
     22 C          63.8014   91.2744   10.5702 C.ar    1  UNL1        0.0863
     23 C          64.8420   92.1628   11.1849 C.ar    1  UNL1        0.0870
     24 C          64.9051   91.8568   12.6520 C.ar    1  UNL1        0.0269
     25 C          65.7451   92.4201   13.7596 C.ar    1  UNL1        0.0022
     26 C          65.5835   91.9058   15.1594 C.ar    1  UNL1        0.0001
     27 C          64.5818   90.8281   15.4515 C.ar    1  UNL1        0.0015
     28 C          63.7418   90.2648   14.3438 C.ar    1  UNL1        0.0172
     29 C          63.9034   90.7791   12.9441 C.ar    1  UNL1        0.0606
     30 C          65.6737   93.1790   10.4597 C.1     1  UNL1        0.1020
     31 N          66.5054   94.1952    9.7346 N.1     1  UNL1       -0.1908
@<TRIPOS>BOND
     1    18    19    1
     2    17    19    1
     3    17    20    1
     4    20    21    1
     5    21    22   ar
     6    22    23   ar
     7    23    30    1
     8    30    31    3
     9    23    24   ar
    10    24    25   ar
    11    25    26   ar
    12    26    27   ar
    13    27    28   ar
    14    28    29   ar
    15    17     1    1
    16     1     3    1
    17     3     4    2
    18     3     5    2
    19     3     6    1
    20     6     7   ar
    21     7     8    1
    22     7     9   ar
    23     9    10   ar
    24    10    11    1
    25    10    12   ar
    26    12    13   ar
    27    13    14    1
    28    29    21   ar
    29    13     6   ar
    30    29    24   ar
    31     1     2    1
    32     8    15    1
    33     8    16    1
@<TRIPOS>MOLECULE
*****
 31 33 0 0 0
SMALL
GASTEIGER

@<TRIPOS>ATOM
      1 N          64.0486   86.4389   13.8577 N.3     1  UNL1       -0.1788
      2 H          65.0602   86.5388   13.7733 H       1  UNL1        0.1488
      3 S          63.7261   85.0102   13.5344 S.O2    1  UNL1        0.0622
      4 O          62.3357   85.4130   13.1413 O.2     1  UNL1       -0.1529
      5 O          65.1165   84.6073   13.9275 O.2     1  UNL1       -0.1529
      6 C          63.4035   83.5814   13.2111 C.ar    1  UNL1        0.1452
      7 C          62.8936   82.6662   14.2846 C.ar    1  UNL1        0.0620
      8 N          62.7062   83.1798   15.6814 N.pl3   1  UNL1       -0.3559
      9 C          62.5710   81.2374   13.9611 C.ar    1  UNL1        0.0269
     10 C          62.7584   80.7238   12.5643 C.ar    1  UNL1        0.0598
     11 CL         62.4358   79.2951   12.2409 Cl      1  UNL1       -0.0822
     12 C          63.2683   81.6391   11.4908 C.ar    1  UNL1        0.0242
     13 C          63.5909   83.0678   11.8142 C.ar    1  UNL1        0.0783
     14 CL         64.1008   83.9830   10.7407 Cl      1  UNL1       -0.0808
     15 H          62.9179   84.1175   15.8936 H       1  UNL1        0.1424
     16 H          62.3715   82.5791   16.3859 H       1  UNL1        0.1424
     17 C          63.6666   87.0109   15.1907 C.3     1  UNL1        0.0980
     18 C          62.7872   86.3692   17.5496 C.3     1  UNL1        0.0015
     19 C          63.7576   86.1629   16.4246 C.3     1  UNL1        0.0194
     20 C          63.1937   88.4311   15.2898 C.3     1  UNL1        0.1234
     21 N          63.8251   89.4929   14.4390 N.ar    1  UNL1       -0.3240
     22 C          64.9699   90.3766   14.8371 C.ar    1  UNL1        0.0863
     23 C          65.2748   91.2873   13.6848 C.ar    1  UNL1        0.0870
     24 C          64.3185   90.9665   12.5747 C.ar    1  UNL1        0.0269
     25 C          64.1478   91.5409   11.1996 C.ar    1  UNL1        0.0022
     26 C          63.0811   91.0062   10.2906 C.ar    1  UNL1        0.0001
     27 C          62.1851   89.8972   10.7567 C.ar    1  UNL1        0.0015
     28 C          62.3558   89.3228   12.1318 C.ar    1  UNL1        0.0172
     29 C          63.4225   89.8574   13.0408 C.ar    1  UNL1        0.0606
     30 C          66.3478   92.3350   13.6490 C.1     1  UNL1        0.1020
     31 N          67.4206   93.3827   13.6132 N.1     1  UNL1       -0.1908
@<TRIPOS>BOND
     1    18    19    1
     2    17    19    1
     3    17    20    1
     4    20    21    1
     5    21    22   ar
     6    22    23   ar
     7    23    30    1
     8    30    31    3
     9    23    24   ar
    10    24    25   ar
    11    25    26   ar
    12    26    27   ar
    13    27    28   ar
    14    28    29   ar
    15    17     1    1
    16     1     3    1
    17     3     4    2
    18     3     5    2
    19     3     6    1
    20     6     7   ar
    21     7     8    1
    22     7     9   ar
    23     9    10   ar
    24    10    11    1
    25    10    12   ar
    26    12    13   ar
    27    13    14    1
    28    29    21   ar
    29    13     6   ar
    30    29    24   ar
    31     1     2    1
    32     8    15    1
    33     8    16    1
@<TRIPOS>MOLECULE
*****
 31 33 0 0 0
SMALL
GASTEIGER

@<TRIPOS>ATOM
      1 N          61.9189   89.9617   12.7734 N.3     1  UNL1       -0.1788
      2 H          62.0562   90.8923   12.3789 H       1  UNL1        0.1488
      3 S          61.5758   89.0531   11.6304 S.O2    1  UNL1        0.0622
      4 O          62.8947   89.3642   10.9873 O.2     1  UNL1       -0.1529
      5 O          60.2569   88.7419   12.2735 O.2     1  UNL1       -0.1529
      6 C          61.2328   88.1444   10.4873 C.ar    1  UNL1        0.1452
      7 C          60.4782   88.6777    9.3057 C.ar    1  UNL1        0.0620
      8 N          60.0666   90.1196    9.2671 N.pl3   1  UNL1       -0.3559
      9 C          60.1352   87.7689    8.1626 C.ar    1  UNL1        0.0269
     10 C          60.5468   86.3270    8.2011 C.ar    1  UNL1        0.0598
     11 CL         60.2038   85.4184    7.0580 Cl      1  UNL1       -0.0822
     12 C          61.3014   85.7938    9.3828 C.ar    1  UNL1        0.0242
     13 C          61.6444   86.7025   10.5258 C.ar    1  UNL1        0.0783
     14 CL         62.3990   86.1693   11.7075 Cl      1  UNL1       -0.0808
     15 H          60.2918   90.7160   10.0174 H       1  UNL1        0.1424
     16 H          59.5714   90.4696    8.4916 H       1  UNL1        0.1424
     17 C          63.1174   89.6726   13.6278 C.3     1  UNL1        0.0980
     18 C          64.3880   87.6509   14.6517 C.3     1  UNL1        0.0015
     19 C          63.8718   88.3881   13.4517 C.3     1  UNL1        0.0194
     20 C          63.5615   90.6679   14.6585 C.3     1  UNL1        0.1234
     21 N          64.7630   91.5284   14.4014 N.ar    1  UNL1       -0.3240
     22 C          65.7644   91.9733   15.4257 C.ar    1  UNL1        0.0863
     23 C          66.7942   92.8149   14.7321 C.ar    1  UNL1        0.0870
     24 C          66.4293   92.8902   13.2791 C.ar    1  UNL1        0.0269
     25 C          67.0779   93.5800   12.1158 C.ar    1  UNL1        0.0022
     26 C          66.4712   93.4747   10.7481 C.ar    1  UNL1        0.0001
     27 C          65.2157   92.6796   10.5437 C.ar    1  UNL1        0.0015
     28 C          64.5671   91.9898   11.7070 C.ar    1  UNL1        0.0172
     29 C          65.1739   92.0951   13.0747 C.ar    1  UNL1        0.0606
     30 C          67.9807   93.4668   15.3780 C.1     1  UNL1        0.1020
     31 N          69.1672   94.1188   16.0240 N.1     1  UNL1       -0.1908
@<TRIPOS>BOND
     1    18    19    1
     2    17    19    1
     3    17    20    1
     4    20    21    1
     5    21    22   ar
     6    22    23   ar
     7    23    30    1
     8    30    31    3
     9    23    24   ar
    10    24    25   ar
    11    25    26   ar
    12    26    27   ar
    13    27    28   ar
    14    28    29   ar
    15    17     1    1
    16     1     3    1
    17     3     4    2
    18     3     5    2
    19     3     6    1
    20     6     7   ar
    21     7     8    1
    22     7     9   ar
    23     9    10   ar
    24    10    11    1
    25    10    12   ar
    26    12    13   ar
    27    13    14    1
    28    29    21   ar
    29    13     6   ar
    30    29    24   ar
    31     1     2    1
    32     8    15    1
    33     8    16    1
@<TRIPOS>MOLECULE
*****
 31 33 0 0 0
SMALL
GASTEIGER

@<TRIPOS>ATOM
      1 N          61.1803   88.3214   11.6957 N.3     1  UNL1       -0.1788
      2 H          60.1730   88.1683   11.7445 H       1  UNL1        0.1488
      3 S          61.8085   86.9865   11.4251 S.O2    1  UNL1        0.0622
      4 O          60.5273   86.5086   10.8086 O.2     1  UNL1       -0.1529
      5 O          63.0897   87.4644   12.0416 O.2     1  UNL1       -0.1529
      6 C          62.4367   85.6515   11.1545 C.ar    1  UNL1        0.1452
      7 C          62.6942   84.7007   12.2857 C.ar    1  UNL1        0.0620
      8 N          62.3236   85.0848   13.6875 N.pl3   1  UNL1       -0.3559
      9 C          63.3224   83.3657   12.0149 C.ar    1  UNL1        0.0269
     10 C          63.6931   82.9816   10.6131 C.ar    1  UNL1        0.0598
     11 CL         64.3213   81.6466   10.3425 Cl      1  UNL1       -0.0822
     12 C          63.4355   83.9325    9.4820 C.ar    1  UNL1        0.0242
     13 C          62.8074   85.2674    9.7527 C.ar    1  UNL1        0.0783
     14 CL         62.5498   86.2183    8.6215 Cl      1  UNL1       -0.0808
     15 H          61.9113   85.9609   13.8651 H       1  UNL1        0.1424
     16 H          62.4926   84.4607   14.4299 H       1  UNL1        0.1424
     17 C          61.3996   89.4602   10.7444 C.3     1  UNL1        0.0980
     18 C          60.0409   89.0276    8.5727 C.3     1  UNL1        0.0015
     19 C          61.3579   89.2198    9.2644 C.3     1  UNL1        0.0194
     20 C          61.6605   90.8396   11.2732 C.3     1  UNL1        0.1234
     21 N          63.0697   91.3051   11.4911 N.ar    1  UNL1       -0.3240
     22 C          63.9551   91.9465   10.4642 C.ar    1  UNL1        0.0863
     23 C          65.2735   92.2487   11.1127 C.ar    1  UNL1        0.0870
     24 C          65.2029   91.7940   12.5404 C.ar    1  UNL1        0.0269
     25 C          66.2028   91.8358   13.6577 C.ar    1  UNL1        0.0022
     26 C          65.8407   91.2943   15.0088 C.ar    1  UNL1        0.0001
     27 C          64.4787   90.7111   15.2427 C.ar    1  UNL1        0.0015
     28 C          63.4787   90.6694   14.1254 C.ar    1  UNL1        0.0172
     29 C          63.8408   91.2108   12.7743 C.ar    1  UNL1        0.0606
     30 C          66.4551   92.8925   10.4499 C.1     1  UNL1        0.1020
     31 N          67.6368   93.5363    9.7871 N.1     1  UNL1       -0.1908
@<TRIPOS>BOND
     1    18    19    1
     2    17    19    1
     3    17    20    1
     4    20    21    1
     5    21    22   ar
     6    22    23   ar
     7    23    30    1
     8    30    31    3
     9    23    24   ar
    10    24    25   ar
    11    25    26   ar
    12    26    27   ar
    13    27    28   ar
    14    28    29   ar
    15    17     1    1
    16     1     3    1
    17     3     4    2
    18     3     5    2
    19     3     6    1
    20     6     7   ar
    21     7     8    1
    22     7     9   ar
    23     9    10   ar
    24    10    11    1
    25    10    12   ar
    26    12    13   ar
    27    13    14    1
    28    29    21   ar
    29    13     6   ar
    30    29    24   ar
    31     1     2    1
    32     8    15    1
    33     8    16    1
@<TRIPOS>MOLECULE
*****
 31 33 0 0 0
SMALL
GASTEIGER

@<TRIPOS>ATOM
      1 N          64.0899   86.6928   13.9838 N.3     1  UNL1       -0.1788
      2 H          65.0975   86.7890   13.8581 H       1  UNL1        0.1488
      3 S          63.7556   85.2551   13.7173 S.O2    1  UNL1        0.0622
      4 O          62.5249   85.6795   12.9721 O.2     1  UNL1       -0.1529
      5 O          64.9862   84.8307   14.4625 O.2     1  UNL1       -0.1529
      6 C          63.4212   83.8174   13.4507 C.ar    1  UNL1        0.1452
      7 C          63.9436   83.1420   12.2174 C.ar    1  UNL1        0.0620
      8 N          64.8005   83.9044   11.2507 N.pl3   1  UNL1       -0.3559
      9 C          63.6091   81.7042   11.9509 C.ar    1  UNL1        0.0269
     10 C          62.7522   80.9418   12.9176 C.ar    1  UNL1        0.0598
     11 CL         62.4178   79.5041   12.6510 Cl      1  UNL1       -0.0822
     12 C          62.2298   81.6173   14.1509 C.ar    1  UNL1        0.0242
     13 C          62.5642   83.0550   14.4174 C.ar    1  UNL1        0.0783
     14 CL         62.0418   83.7303   15.6506 Cl      1  UNL1       -0.0808
     15 H          65.0200   84.8480   11.4257 H       1  UNL1        0.1424
     16 H          65.1435   83.4611   10.4413 H       1  UNL1        0.1424
     17 C          63.7587   87.3061   15.3120 C.3     1  UNL1        0.0980
     18 C          62.7389   86.6715   17.6156 C.3     1  UNL1        0.0015
     19 C          63.7765   86.4633   16.5527 C.3     1  UNL1        0.0194
     20 C          63.4097   88.7624   15.3995 C.3     1  UNL1        0.1234
     21 N          63.8633   89.7082   14.3272 N.ar    1  UNL1       -0.3240
     22 C          64.9743   90.7089   14.4465 C.ar    1  UNL1        0.0863
     23 C          65.0832   91.4384   13.1404 C.ar    1  UNL1        0.0870
     24 C          64.0396   90.8885   12.2139 C.ar    1  UNL1        0.0269
     25 C          63.6783   91.2233   10.7971 C.ar    1  UNL1        0.0022
     26 C          62.5632   90.4887   10.1138 C.ar    1  UNL1        0.0001
     27 C          61.8093   89.4194   10.8473 C.ar    1  UNL1        0.0015
     28 C          62.1705   89.0846   12.2641 C.ar    1  UNL1        0.0172
     29 C          63.2856   89.8191   12.9474 C.ar    1  UNL1        0.0606
     30 C          66.0636   92.5267   12.8174 C.1     1  UNL1        0.1020
     31 N          67.0440   93.6152   12.4945 N.1     1  UNL1       -0.1908
@<TRIPOS>BOND
     1    18    19    1
     2    17    19    1
     3    17    20    1
     4    20    21    1
     5    21    22   ar
     6    22    23   ar
     7    23    30    1
     8    30    31    3
     9    23    24   ar
    10    24    25   ar
    11    25    26   ar
    12    26    27   ar
    13    27    28   ar
    14    28    29   ar
    15    17     1    1
    16     1     3    1
    17     3     4    2
    18     3     5    2
    19     3     6    1
    20     6     7   ar
    21     7     8    1
    22     7     9   ar
    23     9    10   ar
    24    10    11    1
    25    10    12   ar
    26    12    13   ar
    27    13    14    1
    28    29    21   ar
    29    13     6   ar
    30    29    24   ar
    31     1     2    1
    32     8    15    1
    33     8    16    1
@<TRIPOS>MOLECULE
*****
 31 33 0 0 0
SMALL
GASTEIGER

@<TRIPOS>ATOM
      1 N          64.4857   86.4943   13.8621 N.3     1  UNL1       -0.1788
      2 H          65.5017   86.4274   13.9227 H       1  UNL1        0.1488
      3 S          63.9663   85.0930   13.7335 S.O2    1  UNL1        0.0622
      4 O          62.7041   85.6176   13.1158 O.2     1  UNL1       -0.1529
      5 O          65.2285   84.5684   14.3513 O.2     1  UNL1       -0.1529
      6 C          63.4469   83.6917   13.6049 C.ar    1  UNL1        0.1452
      7 C          62.5942   83.1053   14.6907 C.ar    1  UNL1        0.0620
      8 N          62.2609   83.9202   15.9052 N.pl3   1  UNL1       -0.3559
      9 C          62.0748   81.7039   14.5620 C.ar    1  UNL1        0.0269
     10 C          62.4081   80.8891   13.3475 C.ar    1  UNL1        0.0598
     11 CL         61.8886   79.4878   13.2189 Cl      1  UNL1       -0.0822
     12 C          63.2608   81.4756   12.2617 C.ar    1  UNL1        0.0242
     13 C          63.7802   82.8769   12.3904 C.ar    1  UNL1        0.0783
     14 CL         64.6329   83.4633   11.3046 Cl      1  UNL1       -0.0808
     15 H          62.6019   84.8399   15.9896 H       1  UNL1        0.1424
     16 H          61.7013   83.5353   16.6179 H       1  UNL1        0.1424
     17 C          64.0397   87.3576   15.0048 C.3     1  UNL1        0.0980
     18 C          62.8393   87.5150   17.3035 C.3     1  UNL1        0.0015
     19 C          63.6407   86.7302   16.3076 C.3     1  UNL1        0.0194
     20 C          63.9927   88.8484   14.8448 C.3     1  UNL1        0.1234
     21 N          63.6490   89.4494   13.5141 N.ar    1  UNL1       -0.3240
     22 C          62.5776   88.9696   12.5803 C.ar    1  UNL1        0.0863
     23 C          62.5829   89.8594   11.3727 C.ar    1  UNL1        0.0870
     24 C          63.6575   90.8890   11.5601 C.ar    1  UNL1        0.0269
     25 C          64.1211   92.0245   10.6967 C.ar    1  UNL1        0.0022
     26 C          65.2437   92.9066   11.1567 C.ar    1  UNL1        0.0001
     27 C          65.9026   92.6532   12.4802 C.ar    1  UNL1        0.0015
     28 C          65.4390   91.5177   13.3436 C.ar    1  UNL1        0.0172
     29 C          64.3164   90.6356   12.8836 C.ar    1  UNL1        0.0606
     30 C          61.6732   89.7404   10.1859 C.1     1  UNL1        0.1020
     31 N          60.7634   89.6215    8.9992 N.1     1  UNL1       -0.1908
@<TRIPOS>BOND
     1    18    19    1
     2    17    19    1
     3    17    20    1
     4    20    21    1
     5    21    22   ar
     6    22    23   ar
     7    23    30    1
     8    30    31    3
     9    23    24   ar
    10    24    25   ar
    11    25    26   ar
    12    26    27   ar
    13    27    28   ar
    14    28    29   ar
    15    17     1    1
    16     1     3    1
    17     3     4    2
    18     3     5    2
    19     3     6    1
    20     6     7   ar
    21     7     8    1
    22     7     9   ar
    23     9    10   ar
    24    10    11    1
    25    10    12   ar
    26    12    13   ar
    27    13    14    1
    28    29    21   ar
    29    13     6   ar
    30    29    24   ar
    31     1     2    1
    32     8    15    1
    33     8    16    1
@<TRIPOS>MOLECULE
*****
 31 33 0 0 0
SMALL
GASTEIGER

@<TRIPOS>ATOM
      1 N          62.8614   89.5085   14.7756 N.3     1  UNL1       -0.1788
      2 H          62.3826   90.1184   15.4383 H       1  UNL1        0.1488
      3 S          63.7082   90.3917   13.9081 S.O2    1  UNL1        0.0622
      4 O          63.8814   89.2663   12.9316 O.2     1  UNL1       -0.1529
      5 O          63.5350   91.5171   14.8845 O.2     1  UNL1       -0.1529
      6 C          64.5551   91.2749   13.0404 C.ar    1  UNL1        0.1452
      7 C          65.8657   91.7948   13.5523 C.ar    1  UNL1        0.0620
      8 N          66.3294   91.4316   14.9318 N.pl3   1  UNL1       -0.3559
      9 C          66.7125   92.6780   12.6845 C.ar    1  UNL1        0.0269
     10 C          66.2488   93.0412   11.3050 C.ar    1  UNL1        0.0598
     11 CL         67.0956   93.9244   10.4373 Cl      1  UNL1       -0.0822
     12 C          64.9381   92.5212   10.7932 C.ar    1  UNL1        0.0242
     13 C          64.0913   91.6380   11.6609 C.ar    1  UNL1        0.0783
     14 CL         62.7807   91.1181   11.1491 Cl      1  UNL1       -0.0808
     15 H          65.7736   90.8520   15.5012 H       1  UNL1        0.1424
     16 H          67.1896   91.7729   15.2677 H       1  UNL1        0.1424
     17 C          63.4979   88.4125   15.5779 C.3     1  UNL1        0.0980
     18 C          62.7213   86.8678   17.5172 C.3     1  UNL1        0.0015
     19 C          63.1246   88.2237   17.0184 C.3     1  UNL1        0.0194
     20 C          64.5076   87.5051   14.9396 C.3     1  UNL1        0.1234
     21 N          64.0670   86.2151   14.3138 N.ar    1  UNL1       -0.3240
     22 C          64.2698   84.8433   14.8855 C.ar    1  UNL1        0.0863
     23 C          63.6743   83.8508   13.9313 C.ar    1  UNL1        0.0870
     24 C          63.1035   84.6093   12.7699 C.ar    1  UNL1        0.0269
     25 C          62.3942   84.1582   11.5276 C.ar    1  UNL1        0.0022
     26 C          61.9275   85.1683   10.5217 C.ar    1  UNL1        0.0001
     27 C          62.1702   86.6295   10.7581 C.ar    1  UNL1        0.0015
     28 C          62.8795   87.0807   12.0004 C.ar    1  UNL1        0.0172
     29 C          63.3462   86.0705   13.0062 C.ar    1  UNL1        0.0606
     30 C          63.6533   82.3614   14.1075 C.1     1  UNL1        0.1020
     31 N          63.6324   80.8719   14.2838 N.1     1  UNL1       -0.1908
@<TRIPOS>BOND
     1    18    19    1
     2    17    19    1
     3    17    20    1
     4    20    21    1
     5    21    22   ar
     6    22    23   ar
     7    23    30    1
     8    30    31    3
     9    23    24   ar
    10    24    25   ar
    11    25    26   ar
    12    26    27   ar
    13    27    28   ar
    14    28    29   ar
    15    17     1    1
    16     1     3    1
    17     3     4    2
    18     3     5    2
    19     3     6    1
    20     6     7   ar
    21     7     8    1
    22     7     9   ar
    23     9    10   ar
    24    10    11    1
    25    10    12   ar
    26    12    13   ar
    27    13    14    1
    28    29    21   ar
    29    13     6   ar
    30    29    24   ar
    31     1     2    1
    32     8    15    1
    33     8    16    1
@<TRIPOS>MOLECULE
*****
 31 33 0 0 0
SMALL
GASTEIGER

@<TRIPOS>ATOM
      1 N          64.2538   86.5719   14.0871 N.3     1  UNL1       -0.1788
      2 H          65.2674   86.6110   13.9798 H       1  UNL1        0.1488
      3 S          63.8473   85.1488   13.8435 S.O2    1  UNL1        0.0622
      4 O          65.0823   84.6750   14.5507 O.2     1  UNL1       -0.1529
      5 O          62.6122   85.6225   13.1363 O.2     1  UNL1       -0.1529
      6 C          63.4408   83.7256   13.6000 C.ar    1  UNL1        0.1452
      7 C          63.9716   82.9877   12.4067 C.ar    1  UNL1        0.0620
      8 N          64.9088   83.6730   11.4570 N.pl3   1  UNL1       -0.3559
      9 C          63.5650   81.5645   12.1633 C.ar    1  UNL1        0.0269
     10 C          62.6278   80.8792   13.1130 C.ar    1  UNL1        0.0598
     11 CL         62.2213   79.4560   12.8694 Cl      1  UNL1       -0.0822
     12 C          62.0971   81.6171   14.3062 C.ar    1  UNL1        0.0242
     13 C          62.5036   83.0403   14.5497 C.ar    1  UNL1        0.0783
     14 CL         61.9728   83.7782   15.7429 Cl      1  UNL1       -0.0808
     15 H          65.1756   84.6071   11.6168 H       1  UNL1        0.1424
     16 H          65.2572   83.1887   10.6738 H       1  UNL1        0.1424
     17 C          63.9312   87.2307   15.3955 C.3     1  UNL1        0.0980
     18 C          62.6791   87.0300   17.6630 C.3     1  UNL1        0.0015
     19 C          63.4802   86.4017   16.5615 C.3     1  UNL1        0.0194
     20 C          64.0595   88.7184   15.5379 C.3     1  UNL1        0.1234
     21 N          64.0732   89.5903   14.3174 N.ar    1  UNL1       -0.3240
     22 C          63.2308   89.4027   13.0905 C.ar    1  UNL1        0.0863
     23 C          63.5686   90.4993   12.1244 C.ar    1  UNL1        0.0870
     24 C          64.6197   91.3646   12.7542 C.ar    1  UNL1        0.0269
     25 C          65.3330   92.5915   12.2686 C.ar    1  UNL1        0.0022
     26 C          66.3582   93.2565   13.1384 C.ar    1  UNL1        0.0001
     27 C          66.6701   92.6947   14.4938 C.ar    1  UNL1        0.0015
     28 C          65.9567   91.4678   14.9794 C.ar    1  UNL1        0.0172
     29 C          64.9315   90.8028   14.1096 C.ar    1  UNL1        0.0606
     30 C          62.9619   90.6961   10.7667 C.1     1  UNL1        0.1020
     31 N          62.3550   90.8929    9.4091 N.1     1  UNL1       -0.1908
@<TRIPOS>BOND
     1    18    19    1
     2    17    19    1
     3    17    20    1
     4    20    21    1
     5    21    22   ar
     6    22    23   ar
     7    23    30    1
     8    30    31    3
     9    23    24   ar
    10    24    25   ar
    11    25    26   ar
    12    26    27   ar
    13    27    28   ar
    14    28    29   ar
    15    17     1    1
    16     1     3    1
    17     3     4    2
    18     3     5    2
    19     3     6    1
    20     6     7   ar
    21     7     8    1
    22     7     9   ar
    23     9    10   ar
    24    10    11    1
    25    10    12   ar
    26    12    13   ar
    27    13    14    1
    28    29    21   ar
    29    13     6   ar
    30    29    24   ar
    31     1     2    1
    32     8    15    1
    33     8    16    1
