@<TRIPOS>MOLECULE
*****
 33 37 0 0 0
SMALL
GASTEIGER

@<TRIPOS>ATOM
      1 C          63.8982   87.6755   14.0681 C.ar    1  UNL1        0.3235
      2 N          64.6698   88.9227   14.3828 N.ar    1  UNL1       -0.1753
      3 C          64.5209   90.1362   13.5136 C.ar    1  UNL1        0.1665
      4 N          63.6003   90.1024   12.3298 N.ar    1  UNL1       -0.1946
      5 C          62.8286   88.8552   12.0152 C.ar    1  UNL1        0.2255
      6 N          62.9776   87.6417   12.8843 N.ar    1  UNL1       -0.1610
      7 C          65.2925   91.3834   13.8283 C.2     1  UNL1        0.0249
      8 C          65.7609   91.6421   15.2296 C.2     1  UNL1       -0.0005
      9 C          66.5325   92.8892   15.5443 C.2     1  UNL1        0.0011
     10 C          66.8359   93.8778   14.4577 C.2     1  UNL1        0.0172
     11 C          66.3676   93.6191   13.0564 C.2     1  UNL1        0.0900
     12 N          66.5155   94.4053   11.7875 N.2     1  UNL1       -0.1519
     13 N          65.8352   93.6440   10.6886 N.2     1  UNL1       -0.1507
     14 C          65.2668   92.3873   11.2783 C.2     1  UNL1        0.1058
     15 C          65.5959   92.3719   12.7417 C.3     1  UNL1        0.1103
     16 N          61.9081   88.8214   10.8314 N.pl3   1  UNL1       -0.2729
     17 C          61.8080   87.5807    9.9942 C.3     1  UNL1        0.1257
     18 C          60.8873   87.5470    8.8104 C.3     1  UNL1        0.1637
     19 O          60.0669   88.7539    8.4638 O.3     1  UNL1       -0.3501
     20 C          60.1669   89.9945    9.3009 C.3     1  UNL1        0.1637
     21 C          61.0875   90.0283   10.4847 C.3     1  UNL1        0.1257
     22 O          64.0471   86.4621   14.9372 O.3     1  UNL1       -0.4503
     23 C          62.6965   79.3198   10.8247 C.3     1  UNL1        0.1165
     24 N          63.0397   80.6762   11.3653 N.am    1  UNL1       -0.2605
     25 C          63.7483   81.6726   10.4964 C.3     1  UNL1        0.1165
     26 C          62.6742   81.0363   12.7749 C.2     1  UNL1        0.3073
     27 O          61.9656   80.0399   13.6438 O.2     1  UNL1       -0.2523
     28 N          63.0174   82.3927   13.3154 N.am    1  UNL1       -0.2638
     29 C          63.7261   83.3891   12.4465 C.3     1  UNL1        0.0987
     30 C          64.0693   84.7456   12.9871 C.3     1  UNL1        0.0652
     31 C          63.7039   85.1056   14.3966 C.3     1  UNL1        0.1725
     32 C          62.9953   84.1093   15.2655 C.3     1  UNL1        0.0652
     33 C          62.6520   82.7528   14.7250 C.3     1  UNL1        0.0987
@<TRIPOS>BOND
     1    23    24    1
     2    24    25    1
     3    24    26   am
     4    26    27    2
     5    26    28   am
     6    28    29    1
     7    29    30    1
     8    30    31    1
     9    31    22    1
    10    22     1    1
    11     1     2   ar
    12     2     3   ar
    13     3     7    1
    14     7     8    2
    15     8     9    1
    16     9    10    2
    17    10    11    1
    18    11    12    2
    19    12    13    1
    20    13    14    2
    21    14    15    1
    22     3     4   ar
    23     4     5   ar
    24     5    16    1
    25    16    17    1
    26    17    18    1
    27    18    19    1
    28    19    20    1
    29    20    21    1
    30     5     6   ar
    31    31    32    1
    32    32    33    1
    33    33    28    1
    34     6     1   ar
    35    15     7    1
    36    21    16    1
    37    15    11    1
@<TRIPOS>MOLECULE
*****
 33 37 0 0 0
SMALL
GASTEIGER

@<TRIPOS>ATOM
      1 C          63.9054   88.2915   13.9558 C.ar    1  UNL1        0.3235
      2 N          62.9454   88.1073   12.8182 N.ar    1  UNL1       -0.1753
      3 C          62.7650   89.1986   11.8048 C.ar    1  UNL1        0.1665
      4 N          63.5446   90.4740   11.9292 N.ar    1  UNL1       -0.1946
      5 C          64.5047   90.6581   13.0669 C.ar    1  UNL1        0.2255
      6 N          64.6851   89.5670   14.0802 N.ar    1  UNL1       -0.1610
      7 C          61.8049   89.0143   10.6671 C.2     1  UNL1        0.0249
      8 C          60.8890   90.1338   10.2699 C.2     1  UNL1       -0.0005
      9 C          59.9289   89.9496    9.1323 C.2     1  UNL1        0.0011
     10 C          59.8847   88.6459    8.3918 C.2     1  UNL1        0.0172
     11 C          60.8007   87.5264    8.7890 C.2     1  UNL1        0.0900
     12 N          60.9826   86.1389    8.2489 N.2     1  UNL1       -0.1519
     13 N          62.0552   85.4656    9.0528 N.2     1  UNL1       -0.1507
     14 C          62.5361   86.4369   10.0897 C.2     1  UNL1        0.1058
     15 C          61.7607   87.7106    9.9266 C.3     1  UNL1        0.1103
     16 N          65.2844   91.9335   13.1913 N.pl3   1  UNL1       -0.2729
     17 C          65.9344   92.2911   14.4950 C.3     1  UNL1        0.1257
     18 C          66.7141   93.5666   14.6194 C.3     1  UNL1        0.1637
     19 O          66.8437   94.4843   13.4400 O.3     1  UNL1       -0.3501
     20 C          66.1937   94.1267   12.1363 C.3     1  UNL1        0.1637
     21 C          65.4141   92.8513   12.0120 C.3     1  UNL1        0.1257
     22 O          64.0858   87.2004   14.9691 O.3     1  UNL1       -0.4503
     23 C          62.6723   79.6317   11.7338 C.3     1  UNL1        0.1165
     24 N          62.9871   81.0524   12.0974 N.am    1  UNL1       -0.2605
     25 C          63.4627   82.0085   11.0440 C.3     1  UNL1        0.1165
     26 C          62.8265   81.5173   13.5146 C.2     1  UNL1        0.3073
     27 O          62.3509   80.5612   14.5680 O.2     1  UNL1       -0.2523
     28 N          63.1413   82.9380   13.8782 N.am    1  UNL1       -0.2638
     29 C          63.6168   83.8940   12.8248 C.3     1  UNL1        0.0987
     30 C          63.9317   85.3149   13.1883 C.3     1  UNL1        0.0652
     31 C          63.7710   85.7796   14.6054 C.3     1  UNL1        0.1725
     32 C          63.2954   84.8235   15.6589 C.3     1  UNL1        0.0652
     33 C          62.9806   83.4028   15.2954 C.3     1  UNL1        0.0987
@<TRIPOS>BOND
     1    23    24    1
     2    24    25    1
     3    24    26   am
     4    26    27    2
     5    26    28   am
     6    28    29    1
     7    29    30    1
     8    30    31    1
     9    31    22    1
    10    22     1    1
    11     1     2   ar
    12     2     3   ar
    13     3     7    1
    14     7     8    2
    15     8     9    1
    16     9    10    2
    17    10    11    1
    18    11    12    2
    19    12    13    1
    20    13    14    2
    21    14    15    1
    22     3     4   ar
    23     4     5   ar
    24     5    16    1
    25    16    17    1
    26    17    18    1
    27    18    19    1
    28    19    20    1
    29    20    21    1
    30     5     6   ar
    31    31    32    1
    32    32    33    1
    33    33    28    1
    34     6     1   ar
    35    15     7    1
    36    21    16    1
    37    15    11    1
@<TRIPOS>MOLECULE
*****
 33 37 0 0 0
SMALL
GASTEIGER

@<TRIPOS>ATOM
      1 C          62.7769   87.7752   12.7153 C.ar    1  UNL1        0.3235
      2 N          63.1830   86.3317   12.7463 N.ar    1  UNL1       -0.1753
      3 C          62.7455   85.4057   11.6502 C.ar    1  UNL1        0.1665
      4 N          61.9018   85.9234   10.5233 N.ar    1  UNL1       -0.1946
      5 C          61.4956   87.3671   10.4923 C.ar    1  UNL1        0.2255
      6 N          61.9331   88.2930   11.5883 N.ar    1  UNL1       -0.1610
      7 C          63.1517   83.9621   11.6812 C.2     1  UNL1        0.0249
      8 C          63.6976   83.3099   10.4457 C.2     1  UNL1       -0.0005
      9 C          64.1038   81.8664   10.4767 C.2     1  UNL1        0.0011
     10 C          63.9642   81.0749   11.7432 C.2     1  UNL1        0.0172
     11 C          63.4183   81.7271   12.9788 C.2     1  UNL1        0.0900
     12 N          63.1674   81.2045   14.3622 N.2     1  UNL1       -0.1519
     13 N          62.6061   82.3251   15.1863 N.2     1  UNL1       -0.1507
     14 C          62.5101   83.5403   14.3121 C.2     1  UNL1        0.1058
     15 C          63.0120   83.1707   12.9478 C.3     1  UNL1        0.1103
     16 N          60.6518   87.8847    9.3654 N.pl3   1  UNL1       -0.2729
     17 C          60.6516   89.3491    9.0399 C.3     1  UNL1        0.1257
     18 C          59.8078   89.8667    7.9129 C.3     1  UNL1        0.1637
     19 O          58.9644   88.9201    7.1114 O.3     1  UNL1       -0.3501
     20 C          58.9646   87.4558    7.4368 C.3     1  UNL1        0.1637
     21 C          59.8083   86.9382    8.5638 C.3     1  UNL1        0.1257
     22 O          63.2144   88.7012   13.8113 O.3     1  UNL1       -0.4503
     23 C          66.7957   95.6131   10.7866 C.3     1  UNL1        0.1165
     24 N          66.0492   94.3557   11.1205 N.am    1  UNL1       -0.2605
     25 C          65.1514   93.7228   10.0990 C.3     1  UNL1        0.1165
     26 C          66.2005   93.7310   12.4759 C.2     1  UNL1        0.3073
     27 O          67.0983   94.3639   13.4973 O.2     1  UNL1       -0.2523
     28 N          65.4540   92.4736   12.8097 N.am    1  UNL1       -0.2638
     29 C          64.5562   91.8407   11.7883 C.3     1  UNL1        0.0987
     30 C          63.8096   90.5832   12.1221 C.3     1  UNL1        0.0652
     31 C          63.9609   89.9586   13.4774 C.3     1  UNL1        0.1725
     32 C          64.8587   90.5915   14.4989 C.3     1  UNL1        0.0652
     33 C          65.6052   91.8489   14.1651 C.3     1  UNL1        0.0987
@<TRIPOS>BOND
     1    23    24    1
     2    24    25    1
     3    24    26   am
     4    26    27    2
     5    26    28   am
     6    28    29    1
     7    29    30    1
     8    30    31    1
     9    31    22    1
    10    22     1    1
    11     1     2   ar
    12     2     3   ar
    13     3     7    1
    14     7     8    2
    15     8     9    1
    16     9    10    2
    17    10    11    1
    18    11    12    2
    19    12    13    1
    20    13    14    2
    21    14    15    1
    22     3     4   ar
    23     4     5   ar
    24     5    16    1
    25    16    17    1
    26    17    18    1
    27    18    19    1
    28    19    20    1
    29    20    21    1
    30     5     6   ar
    31    31    32    1
    32    32    33    1
    33    33    28    1
    34     6     1   ar
    35    15     7    1
    36    21    16    1
    37    15    11    1
@<TRIPOS>MOLECULE
*****
 33 37 0 0 0
SMALL
GASTEIGER

@<TRIPOS>ATOM
      1 C          63.5116   87.8106   13.5377 C.ar    1  UNL1        0.3235
      2 N          63.5285   86.3266   13.7551 N.ar    1  UNL1       -0.1753
      3 C          62.8018   85.4211   12.8054 C.ar    1  UNL1        0.1665
      4 N          62.0581   85.9996   11.6382 N.ar    1  UNL1       -0.1946
      5 C          62.0412   87.4837   11.4208 C.ar    1  UNL1        0.2255
      6 N          62.7679   88.3892   12.3705 N.ar    1  UNL1       -0.1610
      7 C          62.8187   83.9370   13.0229 C.2     1  UNL1        0.0249
      8 C          62.3358   83.3638   14.3222 C.2     1  UNL1       -0.0005
      9 C          62.3527   81.8799   14.5397 C.2     1  UNL1        0.0011
     10 C          62.8527   80.9689   13.4578 C.2     1  UNL1        0.0172
     11 C          63.3356   81.5421   12.1585 C.2     1  UNL1        0.0900
     12 N          63.8805   80.8980   10.9183 N.2     1  UNL1       -0.1519
     13 N          64.2003   81.9840    9.9343 N.2     1  UNL1       -0.1507
     14 C          63.8531   83.2992   10.5663 C.2     1  UNL1        0.1058
     15 C          63.3186   83.0261   11.9410 C.3     1  UNL1        0.1103
     16 N          61.2975   88.0622   10.2537 N.pl3   1  UNL1       -0.2729
     17 C          60.6572   87.1529    9.2470 C.3     1  UNL1        0.1257
     18 C          59.9135   87.7315    8.0798 C.3     1  UNL1        0.1637
     19 O          59.8101   89.2193    7.9194 O.3     1  UNL1       -0.3501
     20 C          60.4503   90.1285    8.9260 C.3     1  UNL1        0.1637
     21 C          61.1940   89.5500   10.0932 C.3     1  UNL1        0.1257
     22 O          64.2383   88.7161   14.4873 O.3     1  UNL1       -0.4503
     23 C          66.4141   95.8604   10.7491 C.3     1  UNL1        0.1165
     24 N          65.9346   94.5169   11.2126 N.am    1  UNL1       -0.2605
     25 C          65.2329   93.5998   10.2552 C.3     1  UNL1        0.1165
     26 C          66.1566   94.0904   12.6335 C.2     1  UNL1        0.3073
     27 O          66.8583   95.0075   13.5908 O.2     1  UNL1       -0.2523
     28 N          65.6771   92.7469   13.0969 N.am    1  UNL1       -0.2638
     29 C          64.9754   91.8298   12.1396 C.3     1  UNL1        0.0987
     30 C          64.4958   90.4861   12.6030 C.3     1  UNL1        0.0652
     31 C          64.7179   90.0597   14.0238 C.3     1  UNL1        0.1725
     32 C          65.4195   90.9768   14.9812 C.3     1  UNL1        0.0652
     33 C          65.8991   92.3204   14.5178 C.3     1  UNL1        0.0987
@<TRIPOS>BOND
     1    23    24    1
     2    24    25    1
     3    24    26   am
     4    26    27    2
     5    26    28   am
     6    28    29    1
     7    29    30    1
     8    30    31    1
     9    31    22    1
    10    22     1    1
    11     1     2   ar
    12     2     3   ar
    13     3     7    1
    14     7     8    2
    15     8     9    1
    16     9    10    2
    17    10    11    1
    18    11    12    2
    19    12    13    1
    20    13    14    2
    21    14    15    1
    22     3     4   ar
    23     4     5   ar
    24     5    16    1
    25    16    17    1
    26    17    18    1
    27    18    19    1
    28    19    20    1
    29    20    21    1
    30     5     6   ar
    31    31    32    1
    32    32    33    1
    33    33    28    1
    34     6     1   ar
    35    15     7    1
    36    21    16    1
    37    15    11    1
@<TRIPOS>MOLECULE
*****
 33 37 0 0 0
SMALL
GASTEIGER

@<TRIPOS>ATOM
      1 C          63.1431   86.7209   13.4061 C.ar    1  UNL1        0.3235
      2 N          62.4519   87.3192   12.2170 N.ar    1  UNL1       -0.1753
      3 C          61.8116   86.4277   11.1945 C.ar    1  UNL1        0.1665
      4 N          61.8626   84.9379   11.3612 N.ar    1  UNL1       -0.1946
      5 C          62.5539   84.3396   12.5504 C.ar    1  UNL1        0.2255
      6 N          63.1942   85.2310   13.5728 N.ar    1  UNL1       -0.1610
      7 C          61.1203   87.0261   10.0054 C.2     1  UNL1        0.0249
      8 C          60.9092   86.2043    8.7684 C.2     1  UNL1       -0.0005
      9 C          60.2180   86.8027    7.5794 C.2     1  UNL1        0.0011
     10 C          59.7377   88.2230    7.6271 C.2     1  UNL1        0.0172
     11 C          59.9488   89.0448    8.8640 C.2     1  UNL1        0.0900
     12 N          59.5874   90.4609    9.2019 N.2     1  UNL1       -0.1519
     13 N          60.0553   90.7376   10.6000 N.2     1  UNL1       -0.1507
     14 C          60.7059   89.4926   11.1260 C.2     1  UNL1        0.1058
     15 C          60.6401   88.4464   10.0532 C.3     1  UNL1        0.1103
     16 N          62.6049   82.8497   12.7171 N.pl3   1  UNL1       -0.2729
     17 C          62.9985   81.9787   11.5610 C.3     1  UNL1        0.1257
     18 C          63.0494   80.4888   11.7278 C.3     1  UNL1        0.1637
     19 O          62.7068   79.8701   13.0505 O.3     1  UNL1       -0.3501
     20 C          62.3132   80.7411   14.2066 C.3     1  UNL1        0.1637
     21 C          62.2623   82.2309   14.0399 C.3     1  UNL1        0.1257
     22 O          63.7834   87.6123   14.4285 O.3     1  UNL1       -0.4503
     23 C          65.9920   94.9387   11.0826 C.3     1  UNL1        0.1165
     24 N          65.4857   93.5840   11.4804 N.am    1  UNL1       -0.2605
     25 C          64.6566   92.7819   10.5217 C.3     1  UNL1        0.1165
     26 C          65.8086   93.0313   12.8371 C.2     1  UNL1        0.3073
     27 O          66.6377   93.8334   13.7958 O.2     1  UNL1       -0.2523
     28 N          65.3023   91.6766   13.2349 N.am    1  UNL1       -0.2638
     29 C          64.4732   90.8745   12.2762 C.3     1  UNL1        0.0987
     30 C          63.9669   89.5197   12.6740 C.3     1  UNL1        0.0652
     31 C          64.2897   88.9670   14.0306 C.3     1  UNL1        0.1725
     32 C          65.1188   89.7692   14.9893 C.3     1  UNL1        0.0652
     33 C          65.6251   91.1239   14.5916 C.3     1  UNL1        0.0987
@<TRIPOS>BOND
     1    23    24    1
     2    24    25    1
     3    24    26   am
     4    26    27    2
     5    26    28   am
     6    28    29    1
     7    29    30    1
     8    30    31    1
     9    31    22    1
    10    22     1    1
    11     1     2   ar
    12     2     3   ar
    13     3     7    1
    14     7     8    2
    15     8     9    1
    16     9    10    2
    17    10    11    1
    18    11    12    2
    19    12    13    1
    20    13    14    2
    21    14    15    1
    22     3     4   ar
    23     4     5   ar
    24     5    16    1
    25    16    17    1
    26    17    18    1
    27    18    19    1
    28    19    20    1
    29    20    21    1
    30     5     6   ar
    31    31    32    1
    32    32    33    1
    33    33    28    1
    34     6     1   ar
    35    15     7    1
    36    21    16    1
    37    15    11    1
@<TRIPOS>MOLECULE
*****
 33 37 0 0 0
SMALL
GASTEIGER

@<TRIPOS>ATOM
      1 C          61.9775   88.2905   12.6011 C.ar    1  UNL1        0.3235
      2 N          62.6269   86.9449   12.7329 N.ar    1  UNL1       -0.1753
      3 C          62.5180   85.9471   11.6181 C.ar    1  UNL1        0.1665
      4 N          61.7597   86.2951   10.3716 N.ar    1  UNL1       -0.1946
      5 C          61.1103   87.6408   10.2398 C.ar    1  UNL1        0.2255
      6 N          61.2192   88.6386   11.3545 N.ar    1  UNL1       -0.1610
      7 C          63.1674   84.6014   11.7499 C.2     1  UNL1        0.0249
      8 C          63.8122   83.9597   10.5573 C.2     1  UNL1       -0.0005
      9 C          64.4615   82.6141   10.6891 C.2     1  UNL1        0.0011
     10 C          64.4661   81.9100   12.0136 C.2     1  UNL1        0.0172
     11 C          63.8213   82.5516   13.2063 C.2     1  UNL1        0.0900
     12 N          63.6705   82.1015   14.6291 N.2     1  UNL1       -0.1519
     13 N          62.9278   83.1690   15.3767 N.2     1  UNL1       -0.1507
     14 C          62.6197   84.2789   14.4159 C.2     1  UNL1        0.1058
     15 C          63.1719   83.8974   13.0744 C.3     1  UNL1        0.1103
     16 N          60.3520   87.9888    8.9933 N.pl3   1  UNL1       -0.2729
     17 C          59.6243   86.9186    8.2347 C.3     1  UNL1        0.1257
     18 C          58.8660   87.2667    6.9881 C.3     1  UNL1        0.1637
     19 O          58.8354   88.6847    6.5002 O.3     1  UNL1       -0.3501
     20 C          59.5630   89.7548    7.2587 C.3     1  UNL1        0.1637
     21 C          60.3213   89.4069    8.5053 C.3     1  UNL1        0.1257
     22 O          62.0864   89.2883   13.7159 O.3     1  UNL1       -0.4503
     23 C          68.7104   94.1059   15.3477 C.3     1  UNL1        0.1165
     24 N          67.5309   93.1818   15.2809 N.am    1  UNL1       -0.2605
     25 C          67.0770   92.4547   16.5119 C.3     1  UNL1        0.1165
     26 C          66.8049   92.9847   13.9831 C.2     1  UNL1        0.3073
     27 O          67.2588   93.7119   12.7521 O.2     1  UNL1       -0.2523
     28 N          65.6254   92.0607   13.9163 N.am    1  UNL1       -0.2638
     29 C          65.1716   91.3336   15.1473 C.3     1  UNL1        0.0987
     30 C          63.9919   90.4094   15.0805 C.3     1  UNL1        0.0652
     31 C          63.2661   90.2124   13.7827 C.3     1  UNL1        0.1725
     32 C          63.7199   90.9395   12.5517 C.3     1  UNL1        0.0652
     33 C          64.8995   91.8636   12.6184 C.3     1  UNL1        0.0987
@<TRIPOS>BOND
     1    23    24    1
     2    24    25    1
     3    24    26   am
     4    26    27    2
     5    26    28   am
     6    28    29    1
     7    29    30    1
     8    30    31    1
     9    31    22    1
    10    22     1    1
    11     1     2   ar
    12     2     3   ar
    13     3     7    1
    14     7     8    2
    15     8     9    1
    16     9    10    2
    17    10    11    1
    18    11    12    2
    19    12    13    1
    20    13    14    2
    21    14    15    1
    22     3     4   ar
    23     4     5   ar
    24     5    16    1
    25    16    17    1
    26    17    18    1
    27    18    19    1
    28    19    20    1
    29    20    21    1
    30     5     6   ar
    31    31    32    1
    32    32    33    1
    33    33    28    1
    34     6     1   ar
    35    15     7    1
    36    21    16    1
    37    15    11    1
@<TRIPOS>MOLECULE
*****
 33 37 0 0 0
SMALL
GASTEIGER

@<TRIPOS>ATOM
      1 C          63.1948   87.1304   13.2532 C.ar    1  UNL1        0.3235
      2 N          62.4322   87.4360   11.9983 N.ar    1  UNL1       -0.1753
      3 C          61.8841   86.3175   11.1625 C.ar    1  UNL1        0.1665
      4 N          62.0987   84.8933   11.5815 N.ar    1  UNL1       -0.1946
      5 C          62.8614   84.5877   12.8365 C.ar    1  UNL1        0.2255
      6 N          63.4095   85.7061   13.6724 N.ar    1  UNL1       -0.1610
      7 C          61.1214   86.6232    9.9075 C.2     1  UNL1        0.0249
      8 C          60.0279   87.6499    9.9257 C.2     1  UNL1       -0.0005
      9 C          59.2652   87.9556    8.6709 C.2     1  UNL1        0.0011
     10 C          59.5960   87.2346    7.3977 C.2     1  UNL1        0.0172
     11 C          60.6894   86.2080    7.3795 C.2     1  UNL1        0.0900
     12 N          61.2357   85.3429    6.2826 N.2     1  UNL1       -0.1519
     13 N          62.3361   84.5025    6.8596 N.2     1  UNL1       -0.1507
     14 C          62.4698   84.8482    8.3131 C.2     1  UNL1        0.1058
     15 C          61.4521   85.9023    8.6344 C.3     1  UNL1        0.1103
     16 N          63.0760   83.1635   13.2556 N.pl3   1  UNL1       -0.2729
     17 C          63.8185   82.8583   14.5228 C.3     1  UNL1        0.1257
     18 C          64.0331   81.4341   14.9419 C.3     1  UNL1        0.1637
     19 O          63.5053   80.3151   14.0938 O.3     1  UNL1       -0.3501
     20 C          62.7629   80.6203   12.8266 C.3     1  UNL1        0.1637
     21 C          62.5483   82.0445   12.4075 C.3     1  UNL1        0.1257
     22 O          63.7429   88.2488   14.0890 O.3     1  UNL1       -0.4503
     23 C          66.5756   95.7003   11.5991 C.3     1  UNL1        0.1165
     24 N          66.1841   94.4042   12.2444 N.am    1  UNL1       -0.2605
     25 C          66.6675   94.0783   13.6264 C.3     1  UNL1        0.1165
     26 C          65.3090   93.4337   11.5077 C.2     1  UNL1        0.3073
     27 O          64.8256   93.7596   10.1256 O.2     1  UNL1       -0.2523
     28 N          64.9175   92.1376   12.1530 N.am    1  UNL1       -0.2638
     29 C          65.4010   91.8117   13.5350 C.3     1  UNL1        0.0987
     30 C          65.0094   90.5154   14.1804 C.3     1  UNL1        0.0652
     31 C          64.1344   89.5451   13.4437 C.3     1  UNL1        0.1725
     32 C          63.6510   89.8710   12.0617 C.3     1  UNL1        0.0652
     33 C          64.0424   91.1671   11.4163 C.3     1  UNL1        0.0987
@<TRIPOS>BOND
     1    23    24    1
     2    24    25    1
     3    24    26   am
     4    26    27    2
     5    26    28   am
     6    28    29    1
     7    29    30    1
     8    30    31    1
     9    31    22    1
    10    22     1    1
    11     1     2   ar
    12     2     3   ar
    13     3     7    1
    14     7     8    2
    15     8     9    1
    16     9    10    2
    17    10    11    1
    18    11    12    2
    19    12    13    1
    20    13    14    2
    21    14    15    1
    22     3     4   ar
    23     4     5   ar
    24     5    16    1
    25    16    17    1
    26    17    18    1
    27    18    19    1
    28    19    20    1
    29    20    21    1
    30     5     6   ar
    31    31    32    1
    32    32    33    1
    33    33    28    1
    34     6     1   ar
    35    15     7    1
    36    21    16    1
    37    15    11    1
@<TRIPOS>MOLECULE
*****
 33 37 0 0 0
SMALL
GASTEIGER

@<TRIPOS>ATOM
      1 C          62.7723   88.5487   11.8841 C.ar    1  UNL1        0.3235
      2 N          62.3925   88.0054   10.5386 N.ar    1  UNL1       -0.1753
      3 C          62.4106   86.5253   10.2950 C.ar    1  UNL1        0.1665
      4 N          62.8086   85.5887   11.3970 N.ar    1  UNL1       -0.1946
      5 C          63.1885   86.1321   12.7425 C.ar    1  UNL1        0.2255
      6 N          63.1704   87.6121   12.9861 N.ar    1  UNL1       -0.1610
      7 C          62.0307   85.9819    8.9495 C.2     1  UNL1        0.0249
      8 C          63.0125   85.1601    8.1681 C.2     1  UNL1       -0.0005
      9 C          62.6326   84.6168    6.8226 C.2     1  UNL1        0.0011
     10 C          61.2709   84.8952    6.2584 C.2     1  UNL1        0.0172
     11 C          60.2891   85.7171    7.0399 C.2     1  UNL1        0.0900
     12 N          58.8849   86.1533    6.7434 N.2     1  UNL1       -0.1519
     13 N          58.3970   86.9663    7.9057 N.2     1  UNL1       -0.1507
     14 C          59.4996   87.0325    8.9205 C.2     1  UNL1        0.1058
     15 C          60.6690   86.2604    8.3854 C.3     1  UNL1        0.1103
     16 N          63.5865   85.1955   13.8445 N.pl3   1  UNL1       -0.2729
     17 C          63.9415   85.7371   15.1976 C.3     1  UNL1        0.1257
     18 C          64.3395   84.8004   16.2996 C.3     1  UNL1        0.1637
     19 O          64.3825   83.3223   16.0484 O.3     1  UNL1       -0.3501
     20 C          64.0275   82.7807   14.6954 C.3     1  UNL1        0.1637
     21 C          63.6295   83.7173   13.5935 C.3     1  UNL1        0.1257
     22 O          62.7542   90.0287   12.1276 O.3     1  UNL1       -0.4503
     23 C          69.1399   93.6652   16.0961 C.3     1  UNL1        0.1165
     24 N          68.1205   93.0418   15.1894 N.am    1  UNL1       -0.2605
     25 C          68.3897   92.9380   13.7174 C.3     1  UNL1        0.1165
     26 C          66.8318   92.5222   15.7546 C.2     1  UNL1        0.3073
     27 O          66.5627   92.6260   17.2266 O.2     1  UNL1       -0.2523
     28 N          65.8125   91.8989   14.8479 N.am    1  UNL1       -0.2638
     29 C          66.0816   91.7950   13.3759 C.3     1  UNL1        0.0987
     30 C          65.0622   91.1716   12.4691 C.3     1  UNL1        0.0652
     31 C          63.7736   90.6521   13.0344 C.3     1  UNL1        0.1725
     32 C          63.5045   90.7559   14.5064 C.3     1  UNL1        0.0652
     33 C          64.5238   91.3792   15.4131 C.3     1  UNL1        0.0987
@<TRIPOS>BOND
     1    23    24    1
     2    24    25    1
     3    24    26   am
     4    26    27    2
     5    26    28   am
     6    28    29    1
     7    29    30    1
     8    30    31    1
     9    31    22    1
    10    22     1    1
    11     1     2   ar
    12     2     3   ar
    13     3     7    1
    14     7     8    2
    15     8     9    1
    16     9    10    2
    17    10    11    1
    18    11    12    2
    19    12    13    1
    20    13    14    2
    21    14    15    1
    22     3     4   ar
    23     4     5   ar
    24     5    16    1
    25    16    17    1
    26    17    18    1
    27    18    19    1
    28    19    20    1
    29    20    21    1
    30     5     6   ar
    31    31    32    1
    32    32    33    1
    33    33    28    1
    34     6     1   ar
    35    15     7    1
    36    21    16    1
    37    15    11    1
@<TRIPOS>MOLECULE
*****
 33 37 0 0 0
SMALL
GASTEIGER

@<TRIPOS>ATOM
      1 C          63.2548   90.6206   13.0748 C.ar    1  UNL1        0.3235
      2 N          64.4468   91.4504   13.4493 N.ar    1  UNL1       -0.1753
      3 C          65.3230   91.0315   14.5926 C.ar    1  UNL1        0.1665
      4 N          65.0071   89.7828   15.3612 N.ar    1  UNL1       -0.1946
      5 C          63.8150   88.9529   14.9866 C.ar    1  UNL1        0.2255
      6 N          62.9389   89.3718   13.8434 N.ar    1  UNL1       -0.1610
      7 C          66.5151   91.8614   14.9671 C.2     1  UNL1        0.0249
      8 C          66.5007   92.6666   16.2326 C.2     1  UNL1       -0.0005
      9 C          67.6927   93.4964   16.6071 C.2     1  UNL1        0.0011
     10 C          68.8992   93.5212   15.7162 C.2     1  UNL1        0.0172
     11 C          68.9137   92.7160   14.4507 C.2     1  UNL1        0.0900
     12 N          69.9524   92.5439   13.3824 N.2     1  UNL1       -0.1519
     13 N          69.4024   91.6077   12.3476 N.2     1  UNL1       -0.1507
     14 C          68.0236   91.2011   12.7763 C.2     1  UNL1        0.1058
     15 C          67.7216   91.8861   14.0762 C.3     1  UNL1        0.1103
     16 N          63.4991   87.7042   15.7553 N.pl3   1  UNL1       -0.2729
     17 C          62.8708   87.7987   17.1142 C.3     1  UNL1        0.1257
     18 C          62.5549   86.5498   17.8828 C.3     1  UNL1        0.1637
     19 O          62.8673   85.2067   17.2926 O.3     1  UNL1       -0.3501
     20 C          63.4955   85.1123   15.9338 C.3     1  UNL1        0.1637
     21 C          63.8114   86.3610   15.1652 C.3     1  UNL1        0.1257
     22 O          62.3787   91.0394   11.9316 O.3     1  UNL1       -0.4503
     23 C          60.7190   84.7300    6.7176 C.3     1  UNL1        0.1165
     24 N          61.2203   85.7537    7.6925 N.am    1  UNL1       -0.2605
     25 C          62.5686   85.5870    8.3282 C.3     1  UNL1        0.1165
     26 C          60.3733   86.9444    8.0318 C.2     1  UNL1        0.3073
     27 O          59.0249   87.1112    7.3961 O.2     1  UNL1       -0.2523
     28 N          60.8746   87.9681    9.0067 N.am    1  UNL1       -0.2638
     29 C          62.2229   87.8013    9.6424 C.3     1  UNL1        0.0987
     30 C          62.7244   88.8251   10.6174 C.3     1  UNL1        0.0652
     31 C          61.8774   90.0156   10.9566 C.3     1  UNL1        0.1725
     32 C          60.5290   90.1824   10.3209 C.3     1  UNL1        0.0652
     33 C          60.0276   89.1587    9.3460 C.3     1  UNL1        0.0987
@<TRIPOS>BOND
     1    23    24    1
     2    24    25    1
     3    24    26   am
     4    26    27    2
     5    26    28   am
     6    28    29    1
     7    29    30    1
     8    30    31    1
     9    31    22    1
    10    22     1    1
    11     1     2   ar
    12     2     3   ar
    13     3     7    1
    14     7     8    2
    15     8     9    1
    16     9    10    2
    17    10    11    1
    18    11    12    2
    19    12    13    1
    20    13    14    2
    21    14    15    1
    22     3     4   ar
    23     4     5   ar
    24     5    16    1
    25    16    17    1
    26    17    18    1
    27    18    19    1
    28    19    20    1
    29    20    21    1
    30     5     6   ar
    31    31    32    1
    32    32    33    1
    33    33    28    1
    34     6     1   ar
    35    15     7    1
    36    21    16    1
    37    15    11    1
