@<TRIPOS>MOLECULE
*****
 35 38 0 0 0
SMALL
GASTEIGER

@<TRIPOS>ATOM
      1 N          62.9081   90.6696   12.2031 N.am    1  UNL1       -0.2627
      2 C          63.7287   91.5924   11.3517 C.2     1  UNL1        0.2478
      3 O          63.7089   91.4514    9.8584 O.2     1  UNL1       -0.2729
      4 H          62.9210   90.7621   13.1831 H       1  UNL1        0.1568
      5 C          61.3190   87.8397   10.0742 C.ar    1  UNL1        0.0512
      6 C          60.2300   88.0973   11.0731 C.ar    1  UNL1        0.1073
      7 N          60.6927   89.1887   11.9922 N.ar    1  UNL1       -0.2224
      8 C          62.0677   89.6057   11.5613 C.ar    1  UNL1        0.1656
      9 S          62.4547   88.7719   10.3759 S.2     1  UNL1       -0.0513
     10 N          61.1598   83.7913    5.6487 N.pl3   1  UNL1       -0.3570
     11 C          61.1996   84.8034    6.7551 C.ar    1  UNL1        0.0415
     12 C          59.9726   85.5996    7.0877 C.ar    1  UNL1        0.0141
     13 C          60.0124   86.6117    8.1940 C.ar    1  UNL1        0.0018
     14 C          61.2792   86.8276    8.9678 C.ar    1  UNL1        0.0077
     15 C          62.5061   86.0314    8.6352 C.ar    1  UNL1        0.0018
     16 C          62.4663   85.0193    7.5289 C.ar    1  UNL1        0.0141
     17 H          60.3284   83.6496    5.1409 H       1  UNL1        0.1424
     18 H          61.9650   83.2687    5.4304 H       1  UNL1        0.1424
     19 C          64.5690   92.6562   11.9935 C.3     1  UNL1        0.1799
     20 N          66.0402   92.4355   12.1858 N.am    1  UNL1       -0.2636
     21 C          66.5538   91.8972   13.4884 C.2     1  UNL1        0.2497
     22 O          68.0250   91.6764   13.6807 O.2     1  UNL1       -0.2699
     23 C          65.5963   91.5796   14.5985 C.ar    1  UNL1        0.0567
     24 C          64.7592   90.3366   14.5342 C.ar    1  UNL1        0.0252
     25 C          63.8017   90.0191   15.6443 C.ar    1  UNL1        0.0990
     26 N          63.6813   90.9445   16.8186 N.ar    1  UNL1       -0.2423
     27 C          64.5185   92.1875   16.8829 C.ar    1  UNL1        0.0990
     28 C          65.4760   92.5051   15.7728 C.ar    1  UNL1        0.0252
     29 C          66.9977   92.7530   11.0757 C.3     1  UNL1        0.1209
     30 C          67.0009   94.1189   10.4558 C.ar    1  UNL1       -0.0023
     31 C          66.4571   95.2902   11.2189 C.ar    1  UNL1       -0.0026
     32 C          66.4603   96.6562   10.5990 C.ar    1  UNL1       -0.0003
     33 C          67.0072   96.8507    9.2158 C.ar    1  UNL1       -0.0000
     34 C          67.5509   95.6794    8.4526 C.ar    1  UNL1       -0.0003
     35 C          67.5477   94.3135    9.0726 C.ar    1  UNL1       -0.0026
@<TRIPOS>BOND
     1    10    11    1
     2    11    12   ar
     3    12    13   ar
     4    13    14   ar
     5    14     5    1
     6     5     6   ar
     7     6     7   ar
     8     7     8   ar
     9     8     1    1
    10     1     2   am
    11     2     3    2
    12     2    19    1
    13    19    20    1
    14    20    29    1
    15    29    30    1
    16    30    31   ar
    17    31    32   ar
    18    32    33   ar
    19    33    34   ar
    20    34    35   ar
    21    20    21   am
    22    21    22    2
    23    21    23    1
    24    23    24   ar
    25    24    25   ar
    26    25    26   ar
    27    26    27   ar
    28    27    28   ar
    29     8     9   ar
    30    14    15   ar
    31    15    16   ar
    32    16    11   ar
    33     9     5   ar
    34    35    30   ar
    35    28    23   ar
    36    10    17    1
    37    10    18    1
    38     1     4    1
@<TRIPOS>MOLECULE
*****
 35 38 0 0 0
SMALL
GASTEIGER

@<TRIPOS>ATOM
      1 N          64.1451   88.8467   13.4513 N.am    1  UNL1       -0.2627
      2 C          63.3060   89.9774   13.9683 C.2     1  UNL1        0.2478
      3 O          62.3045   89.7312   15.0575 O.2     1  UNL1       -0.2729
      4 H          64.8024   89.0083   12.7365 H       1  UNL1        0.1568
      5 C          63.5775   85.0847   14.2200 C.ar    1  UNL1        0.0512
      6 C          63.8880   85.6164   15.5878 C.ar    1  UNL1        0.1073
      7 N          64.1384   87.0904   15.4664 N.ar    1  UNL1       -0.2224
      8 C          63.9827   87.4696   14.0235 C.ar    1  UNL1        0.1656
      9 S          63.6360   86.2301   13.2532 S.2     1  UNL1       -0.0513
     10 N          62.3218   79.3784   12.8556 N.pl3   1  UNL1       -0.3570
     11 C          62.6357   80.8050   13.1967 C.ar    1  UNL1        0.0415
     12 C          61.9230   81.4791   14.3314 C.ar    1  UNL1        0.0141
     13 C          62.2369   82.9057   14.6725 C.ar    1  UNL1        0.0018
     14 C          63.2636   83.6581   13.8789 C.ar    1  UNL1        0.0077
     15 C          63.9763   82.9840   12.7443 C.ar    1  UNL1        0.0018
     16 C          63.6624   81.5574   12.4032 C.ar    1  UNL1        0.0141
     17 H          61.6479   78.8846   13.3765 H       1  UNL1        0.1424
     18 H          62.7896   78.9359   12.1109 H       1  UNL1        0.1424
     19 C          63.4684   91.3544   13.3961 C.3     1  UNL1        0.1799
     20 N          64.1144   91.5377   12.0548 N.am    1  UNL1       -0.2636
     21 C          65.5280   92.0314   11.9643 C.2     1  UNL1        0.2497
     22 O          66.1741   92.2148   10.6230 O.2     1  UNL1       -0.2699
     23 C          66.2956   92.3418   13.2152 C.ar    1  UNL1        0.0567
     24 C          66.5024   93.7672   13.6339 C.ar    1  UNL1        0.0252
     25 C          67.2699   94.0776   14.8847 C.ar    1  UNL1        0.0990
     26 N          67.8306   92.9625   15.7168 N.ar    1  UNL1       -0.2423
     27 C          67.6238   91.5371   15.2980 C.ar    1  UNL1        0.0990
     28 C          66.8562   91.2267   14.0472 C.ar    1  UNL1        0.0252
     29 C          63.3469   91.2274   10.8040 C.3     1  UNL1        0.1209
     30 C          62.2506   90.2039   10.8312 C.ar    1  UNL1       -0.0023
     31 C          62.5328   88.7912   10.4134 C.ar    1  UNL1       -0.0026
     32 C          61.4366   87.7677   10.4406 C.ar    1  UNL1       -0.0003
     33 C          60.0580   88.1570   10.8857 C.ar    1  UNL1       -0.0000
     34 C          59.7758   89.5697   11.3035 C.ar    1  UNL1       -0.0003
     35 C          60.8721   90.5932   11.2763 C.ar    1  UNL1       -0.0026
@<TRIPOS>BOND
     1    10    11    1
     2    11    12   ar
     3    12    13   ar
     4    13    14   ar
     5    14     5    1
     6     5     6   ar
     7     6     7   ar
     8     7     8   ar
     9     8     1    1
    10     1     2   am
    11     2     3    2
    12     2    19    1
    13    19    20    1
    14    20    29    1
    15    29    30    1
    16    30    31   ar
    17    31    32   ar
    18    32    33   ar
    19    33    34   ar
    20    34    35   ar
    21    20    21   am
    22    21    22    2
    23    21    23    1
    24    23    24   ar
    25    24    25   ar
    26    25    26   ar
    27    26    27   ar
    28    27    28   ar
    29     8     9   ar
    30    14    15   ar
    31    15    16   ar
    32    16    11   ar
    33     9     5   ar
    34    35    30   ar
    35    28    23   ar
    36    10    17    1
    37    10    18    1
    38     1     4    1
@<TRIPOS>MOLECULE
*****
 35 38 0 0 0
SMALL
GASTEIGER

@<TRIPOS>ATOM
      1 N          62.7938   90.9543   12.5665 N.am    1  UNL1       -0.2627
      2 C          63.8771   91.6529   11.7993 C.2     1  UNL1        0.2478
      3 O          64.1370   91.2880   10.3678 O.2     1  UNL1       -0.2729
      4 H          62.6232   91.1939   13.5061 H       1  UNL1        0.1568
      5 C          61.2601   88.1276   10.3934 C.ar    1  UNL1        0.0512
      6 C          60.1474   88.3810   11.3667 C.ar    1  UNL1        0.1073
      7 N          60.5864   89.4708   12.2993 N.ar    1  UNL1       -0.2224
      8 C          61.9706   89.8909   11.9023 C.ar    1  UNL1        0.1656
      9 S          62.3870   89.0607   10.7244 S.2     1  UNL1       -0.0513
     10 N          61.2125   84.0902    5.9552 N.pl3   1  UNL1       -0.3570
     11 C          61.2244   85.0995    7.0648 C.ar    1  UNL1        0.0415
     12 C          59.9909   85.8983    7.3653 C.ar    1  UNL1        0.0141
     13 C          60.0028   86.9076    8.4748 C.ar    1  UNL1        0.0018
     14 C          61.2482   87.1182    9.2838 C.ar    1  UNL1        0.0077
     15 C          62.4817   86.3194    8.9833 C.ar    1  UNL1        0.0018
     16 C          62.4698   85.3101    7.8738 C.ar    1  UNL1        0.0141
     17 H          60.3950   83.9520    5.4243 H       1  UNL1        0.1424
     18 H          62.0221   83.5659    5.7580 H       1  UNL1        0.1424
     19 C          64.7002   92.7164   12.4636 C.3     1  UNL1        0.1799
     20 N          65.8779   92.3337   13.3101 N.am    1  UNL1       -0.2636
     21 C          67.2552   92.3177   12.7159 C.2     1  UNL1        0.2497
     22 O          68.4329   91.9350   13.5624 O.2     1  UNL1       -0.2699
     23 C          67.4547   92.6843   11.2751 C.ar    1  UNL1        0.0567
     24 C          66.7898   93.9058   10.7131 C.ar    1  UNL1        0.0252
     25 C          66.9893   94.2724    9.2723 C.ar    1  UNL1        0.0990
     26 N          67.8537   93.4175    8.3936 N.ar    1  UNL1       -0.2423
     27 C          68.5185   92.1960    8.9557 C.ar    1  UNL1        0.0990
     28 C          68.3190   91.8294   10.3964 C.ar    1  UNL1        0.0252
     29 C          65.6784   91.9671   14.7509 C.3     1  UNL1        0.1209
     30 C          64.8903   90.7427   15.1110 C.ar    1  UNL1       -0.0023
     31 C          63.8586   90.8077   16.1979 C.ar    1  UNL1       -0.0026
     32 C          63.0704   89.5834   16.5582 C.ar    1  UNL1       -0.0003
     33 C          63.3139   88.2939   15.8313 C.ar    1  UNL1       -0.0000
     34 C          64.3456   88.2289   14.7444 C.ar    1  UNL1       -0.0003
     35 C          65.1338   89.4533   14.3843 C.ar    1  UNL1       -0.0026
@<TRIPOS>BOND
     1    10    11    1
     2    11    12   ar
     3    12    13   ar
     4    13    14   ar
     5    14     5    1
     6     5     6   ar
     7     6     7   ar
     8     7     8   ar
     9     8     1    1
    10     1     2   am
    11     2     3    2
    12     2    19    1
    13    19    20    1
    14    20    29    1
    15    29    30    1
    16    30    31   ar
    17    31    32   ar
    18    32    33   ar
    19    33    34   ar
    20    34    35   ar
    21    20    21   am
    22    21    22    2
    23    21    23    1
    24    23    24   ar
    25    24    25   ar
    26    25    26   ar
    27    26    27   ar
    28    27    28   ar
    29     8     9   ar
    30    14    15   ar
    31    15    16   ar
    32    16    11   ar
    33     9     5   ar
    34    35    30   ar
    35    28    23   ar
    36    10    17    1
    37    10    18    1
    38     1     4    1
@<TRIPOS>MOLECULE
*****
 35 38 0 0 0
SMALL
GASTEIGER

@<TRIPOS>ATOM
      1 N          61.3451   90.4229   11.6160 N.am    1  UNL1       -0.2627
      2 C          61.6952   89.9123   10.2497 C.2     1  UNL1        0.2478
      3 O          63.0940   89.4579    9.9547 O.2     1  UNL1       -0.2729
      4 H          60.4270   90.7212   11.8097 H       1  UNL1        0.1568
      5 C          64.3971   91.0598   13.9279 C.ar    1  UNL1        0.0512
      6 C          63.6171   90.0715   14.7432 C.ar    1  UNL1        0.1073
      7 N          62.3789   89.7126   13.9765 N.ar    1  UNL1       -0.2224
      8 C          62.3936   90.4791   12.6872 C.ar    1  UNL1        0.1656
      9 S          63.6409   91.3117   12.6572 S.2     1  UNL1       -0.0513
     10 N          69.6242   93.5654   15.4771 N.pl3   1  UNL1       -0.3570
     11 C          68.3174   92.9390   15.0898 C.ar    1  UNL1        0.0415
     12 C          68.1598   92.3074   13.7384 C.ar    1  UNL1        0.0141
     13 C          66.8530   91.6810   13.3511 C.ar    1  UNL1        0.0018
     14 C          65.7039   91.6862   14.3152 C.ar    1  UNL1        0.0077
     15 C          65.8615   92.3178   15.6665 C.ar    1  UNL1        0.0018
     16 C          67.1683   92.9441   16.0539 C.ar    1  UNL1        0.0141
     17 H          70.3784   93.5620   14.8444 H       1  UNL1        0.1424
     18 H          69.7276   93.9799   16.3641 H       1  UNL1        0.1424
     19 C          60.6467   89.8562    9.1787 C.3     1  UNL1        0.1799
     20 N          59.9897   88.5509    8.8401 N.am    1  UNL1       -0.2636
     21 C          59.2821   88.3856    7.5278 C.2     1  UNL1        0.2497
     22 O          58.6250   87.0803    7.1892 O.2     1  UNL1       -0.2699
     23 C          59.2316   89.5254    6.5541 C.ar    1  UNL1        0.0567
     24 C          60.4965   90.0344    5.9289 C.ar    1  UNL1        0.0252
     25 C          60.4460   91.1743    4.9552 C.ar    1  UNL1        0.0990
     26 N          59.1305   91.8052    4.6067 N.ar    1  UNL1       -0.2423
     27 C          57.8656   91.2963    5.2319 C.ar    1  UNL1        0.0990
     28 C          57.9161   90.1564    6.2056 C.ar    1  UNL1        0.0252
     29 C          60.0402   87.4110    9.8138 C.3     1  UNL1        0.1209
     30 C          61.1675   86.4232    9.7543 C.ar    1  UNL1       -0.0023
     31 C          61.5933   85.6955   10.9949 C.ar    1  UNL1       -0.0026
     32 C          62.7205   84.7077   10.9356 C.ar    1  UNL1       -0.0003
     33 C          63.4220   84.4476    9.6354 C.ar    1  UNL1       -0.0000
     34 C          62.9962   85.1753    8.3948 C.ar    1  UNL1       -0.0003
     35 C          61.8689   86.1631    8.4542 C.ar    1  UNL1       -0.0026
@<TRIPOS>BOND
     1    10    11    1
     2    11    12   ar
     3    12    13   ar
     4    13    14   ar
     5    14     5    1
     6     5     6   ar
     7     6     7   ar
     8     7     8   ar
     9     8     1    1
    10     1     2   am
    11     2     3    2
    12     2    19    1
    13    19    20    1
    14    20    29    1
    15    29    30    1
    16    30    31   ar
    17    31    32   ar
    18    32    33   ar
    19    33    34   ar
    20    34    35   ar
    21    20    21   am
    22    21    22    2
    23    21    23    1
    24    23    24   ar
    25    24    25   ar
    26    25    26   ar
    27    26    27   ar
    28    27    28   ar
    29     8     9   ar
    30    14    15   ar
    31    15    16   ar
    32    16    11   ar
    33     9     5   ar
    34    35    30   ar
    35    28    23   ar
    36    10    17    1
    37    10    18    1
    38     1     4    1
@<TRIPOS>MOLECULE
*****
 35 38 0 0 0
SMALL
GASTEIGER

@<TRIPOS>ATOM
      1 N          64.2592   88.8155   13.9071 N.am    1  UNL1       -0.2627
      2 C          63.3447   89.9004   14.3938 C.2     1  UNL1        0.2478
      3 O          62.2421   89.5755   15.3574 O.2     1  UNL1       -0.2729
      4 H          64.9829   89.0287   13.2746 H       1  UNL1        0.1568
      5 C          63.6605   85.0140   14.4122 C.ar    1  UNL1        0.0512
      6 C          63.9028   85.4593   15.8239 C.ar    1  UNL1        0.1073
      7 N          64.1566   86.9376   15.8066 N.ar    1  UNL1       -0.2224
      8 C          64.0711   87.4059   14.3841 C.ar    1  UNL1        0.1656
      9 S          63.7646   86.2170   13.5224 S.2     1  UNL1       -0.0513
     10 N          62.4821   79.4052   12.6365 N.pl3   1  UNL1       -0.3570
     11 C          62.7767   80.8074   13.0804 C.ar    1  UNL1        0.0415
     12 C          63.8622   81.5945   12.4080 C.ar    1  UNL1        0.0141
     13 C          64.1568   82.9967   12.8519 C.ar    1  UNL1        0.0018
     14 C          63.3659   83.6118   13.9683 C.ar    1  UNL1        0.0077
     15 C          62.2805   82.8246   14.6407 C.ar    1  UNL1        0.0018
     16 C          61.9859   81.4224   14.1967 C.ar    1  UNL1        0.0141
     17 H          63.0012   79.0015   11.9038 H       1  UNL1        0.1424
     18 H          61.7697   78.8886   13.0778 H       1  UNL1        0.1424
     19 C          63.5329   91.3099   13.9168 C.3     1  UNL1        0.1799
     20 N          64.1943   91.5728   12.5964 N.am    1  UNL1       -0.2636
     21 C          63.6072   91.0067   11.3375 C.2     1  UNL1        0.2497
     22 O          64.2687   91.2696   10.0171 O.2     1  UNL1       -0.2699
     23 C          62.3586   90.1777   11.3989 C.ar    1  UNL1        0.0567
     24 C          61.0471   90.8213   11.7393 C.ar    1  UNL1        0.0252
     25 C          59.7985   89.9923   11.8007 C.ar    1  UNL1        0.0990
     26 N          59.8614   88.5198   11.5218 N.ar    1  UNL1       -0.2423
     27 C          61.1729   87.8762   11.1815 C.ar    1  UNL1        0.0990
     28 C          62.4215   88.7052   11.1200 C.ar    1  UNL1        0.0252
     29 C          65.4429   92.4018   12.5349 C.3     1  UNL1        0.1209
     30 C          66.4130   92.3827   13.6790 C.ar    1  UNL1       -0.0023
     31 C          67.8304   91.9468   13.4533 C.ar    1  UNL1       -0.0026
     32 C          68.8004   91.9277   14.5972 C.ar    1  UNL1       -0.0003
     33 C          68.3530   92.3445   15.9670 C.ar    1  UNL1       -0.0000
     34 C          66.9356   92.7804   16.1927 C.ar    1  UNL1       -0.0003
     35 C          65.9656   92.7995   15.0487 C.ar    1  UNL1       -0.0026
@<TRIPOS>BOND
     1    10    11    1
     2    11    12   ar
     3    12    13   ar
     4    13    14   ar
     5    14     5    1
     6     5     6   ar
     7     6     7   ar
     8     7     8   ar
     9     8     1    1
    10     1     2   am
    11     2     3    2
    12     2    19    1
    13    19    20    1
    14    20    29    1
    15    29    30    1
    16    30    31   ar
    17    31    32   ar
    18    32    33   ar
    19    33    34   ar
    20    34    35   ar
    21    20    21   am
    22    21    22    2
    23    21    23    1
    24    23    24   ar
    25    24    25   ar
    26    25    26   ar
    27    26    27   ar
    28    27    28   ar
    29     8     9   ar
    30    14    15   ar
    31    15    16   ar
    32    16    11   ar
    33     9     5   ar
    34    35    30   ar
    35    28    23   ar
    36    10    17    1
    37    10    18    1
    38     1     4    1
@<TRIPOS>MOLECULE
*****
 35 38 0 0 0
SMALL
GASTEIGER

@<TRIPOS>ATOM
      1 N          62.1047   90.1893   12.7349 N.am    1  UNL1       -0.2627
      2 C          63.2272   91.0278   12.1993 C.2     1  UNL1        0.2478
      3 O          63.6889   90.8472   10.7836 O.2     1  UNL1       -0.2729
      4 H          61.8017   90.3078   13.6641 H       1  UNL1        0.1568
      5 C          61.0665   87.5174   10.1179 C.ar    1  UNL1        0.0512
      6 C          59.7873   87.6862   10.8829 C.ar    1  UNL1        0.1073
      7 N          60.0205   88.7076   11.9564 N.ar    1  UNL1       -0.2224
      8 C          61.4438   89.1701   11.8548 C.ar    1  UNL1        0.1656
      9 S          62.0902   88.4346   10.7185 S.2     1  UNL1       -0.0513
     10 N          61.9354   83.8226    5.4710 N.pl3   1  UNL1       -0.3570
     11 C          61.7182   84.7463    6.6327 C.ar    1  UNL1        0.0415
     12 C          62.8474   85.0473    7.5730 C.ar    1  UNL1        0.0141
     13 C          62.6302   85.9710    8.7347 C.ar    1  UNL1        0.0018
     14 C          61.2837   86.5937    8.9562 C.ar    1  UNL1        0.0077
     15 C          60.1544   86.2927    8.0159 C.ar    1  UNL1        0.0018
     16 C          60.3717   85.3690    6.8542 C.ar    1  UNL1        0.0141
     17 H          62.8192   83.4139    5.3257 H       1  UNL1        0.1424
     18 H          61.1942   83.6251    4.8539 H       1  UNL1        0.1424
     19 C          63.8880   92.0469   13.0795 C.3     1  UNL1        0.1799
     20 N          64.8679   91.6100   14.1277 N.am    1  UNL1       -0.2636
     21 C          66.3414   91.7363   13.8762 C.2     1  UNL1        0.2497
     22 O          67.3213   91.2994   14.9245 O.2     1  UNL1       -0.2699
     23 C          66.8348   92.2995   12.5765 C.ar    1  UNL1        0.0567
     24 C          67.9118   91.5887   11.8119 C.ar    1  UNL1        0.0252
     25 C          68.4052   92.1519   10.5122 C.ar    1  UNL1        0.0990
     26 N          67.8216   93.4260    9.9771 N.ar    1  UNL1       -0.2423
     27 C          66.7446   94.1368   10.7418 C.ar    1  UNL1        0.0990
     28 C          66.2512   93.5736   12.0415 C.ar    1  UNL1        0.0252
     29 C          64.3745   91.0467   15.4275 C.3     1  UNL1        0.1209
     30 C          64.1092   89.5759   15.5549 C.ar    1  UNL1       -0.0023
     31 C          64.6573   88.6236   14.5338 C.ar    1  UNL1       -0.0026
     32 C          64.3920   87.1528   14.6611 C.ar    1  UNL1       -0.0003
     33 C          63.5786   86.6342   15.8099 C.ar    1  UNL1       -0.0000
     34 C          63.0305   87.5864   16.8310 C.ar    1  UNL1       -0.0003
     35 C          63.2958   89.0573   16.7036 C.ar    1  UNL1       -0.0026
@<TRIPOS>BOND
     1    10    11    1
     2    11    12   ar
     3    12    13   ar
     4    13    14   ar
     5    14     5    1
     6     5     6   ar
     7     6     7   ar
     8     7     8   ar
     9     8     1    1
    10     1     2   am
    11     2     3    2
    12     2    19    1
    13    19    20    1
    14    20    29    1
    15    29    30    1
    16    30    31   ar
    17    31    32   ar
    18    32    33   ar
    19    33    34   ar
    20    34    35   ar
    21    20    21   am
    22    21    22    2
    23    21    23    1
    24    23    24   ar
    25    24    25   ar
    26    25    26   ar
    27    26    27   ar
    28    27    28   ar
    29     8     9   ar
    30    14    15   ar
    31    15    16   ar
    32    16    11   ar
    33     9     5   ar
    34    35    30   ar
    35    28    23   ar
    36    10    17    1
    37    10    18    1
    38     1     4    1
@<TRIPOS>MOLECULE
*****
 35 38 0 0 0
SMALL
GASTEIGER

@<TRIPOS>ATOM
      1 N          63.2569   87.3455   12.8620 N.am    1  UNL1       -0.2627
      2 C          62.0129   87.1444   12.0483 C.2     1  UNL1        0.2478
      3 O          61.1173   88.3093   11.7469 O.2     1  UNL1       -0.2729
      4 H          63.8447   86.5809   13.0597 H       1  UNL1        0.1568
      5 C          64.8627   90.6125   14.2086 C.ar    1  UNL1        0.0512
      6 C          63.4206   91.0148   14.1167 C.ar    1  UNL1        0.1073
      7 N          62.6435   89.8400   13.6010 N.ar    1  UNL1       -0.2224
      8 C          63.6053   88.7115   13.3743 C.ar    1  UNL1        0.1656
      9 S          64.9769   89.1890   13.7497 S.2     1  UNL1       -0.0513
     10 N          69.3810   94.0872   16.0825 N.pl3   1  UNL1       -0.3570
     11 C          68.2514   93.2186   15.6140 C.ar    1  UNL1        0.0415
     12 C          68.3790   92.4482   14.3333 C.ar    1  UNL1        0.0141
     13 C          67.2494   91.5796   13.8648 C.ar    1  UNL1        0.0018
     14 C          65.9922   91.4812   14.6771 C.ar    1  UNL1        0.0077
     15 C          65.8646   92.2515   15.9578 C.ar    1  UNL1        0.0018
     16 C          66.9942   93.1202   16.4263 C.ar    1  UNL1        0.0141
     17 H          70.2061   94.1518   15.5494 H       1  UNL1        0.1424
     18 H          69.2972   94.5928   16.9231 H       1  UNL1        0.1424
     19 C          61.6645   85.7783   11.5361 C.3     1  UNL1        0.1799
     20 N          62.4947   85.1475   10.4576 N.am    1  UNL1       -0.2636
     21 C          63.3156   83.9288   10.7592 C.2     1  UNL1        0.2497
     22 O          64.1457   83.2980    9.6807 O.2     1  UNL1       -0.2699
     23 C          63.3063   83.3409   12.1391 C.ar    1  UNL1        0.0567
     24 C          62.4078   82.1819   12.4545 C.ar    1  UNL1        0.0252
     25 C          62.3986   81.5940   13.8344 C.ar    1  UNL1        0.0990
     26 N          63.2878   82.1650   14.8990 N.ar    1  UNL1       -0.2423
     27 C          64.1863   83.3240   14.5836 C.ar    1  UNL1        0.0990
     28 C          64.1956   83.9119   13.2036 C.ar    1  UNL1        0.0252
     29 C          62.5040   85.7355    9.0777 C.3     1  UNL1        0.1209
     30 C          61.3430   86.5598    8.6058 C.ar    1  UNL1       -0.0023
     31 C          60.1875   85.9006    7.9129 C.ar    1  UNL1       -0.0026
     32 C          59.0265   86.7248    7.4410 C.ar    1  UNL1       -0.0003
     33 C          59.0210   88.2085    7.6621 C.ar    1  UNL1       -0.0000
     34 C          60.1765   88.8677    8.3551 C.ar    1  UNL1       -0.0003
     35 C          61.3375   88.0434    8.8270 C.ar    1  UNL1       -0.0026
@<TRIPOS>BOND
     1    10    11    1
     2    11    12   ar
     3    12    13   ar
     4    13    14   ar
     5    14     5    1
     6     5     6   ar
     7     6     7   ar
     8     7     8   ar
     9     8     1    1
    10     1     2   am
    11     2     3    2
    12     2    19    1
    13    19    20    1
    14    20    29    1
    15    29    30    1
    16    30    31   ar
    17    31    32   ar
    18    32    33   ar
    19    33    34   ar
    20    34    35   ar
    21    20    21   am
    22    21    22    2
    23    21    23    1
    24    23    24   ar
    25    24    25   ar
    26    25    26   ar
    27    26    27   ar
    28    27    28   ar
    29     8     9   ar
    30    14    15   ar
    31    15    16   ar
    32    16    11   ar
    33     9     5   ar
    34    35    30   ar
    35    28    23   ar
    36    10    17    1
    37    10    18    1
    38     1     4    1
@<TRIPOS>MOLECULE
*****
 35 38 0 0 0
SMALL
GASTEIGER

@<TRIPOS>ATOM
      1 N          64.4183   88.9494   14.3810 N.am    1  UNL1       -0.2627
      2 C          63.3381   89.9863   14.2900 C.2     1  UNL1        0.2478
      3 O          61.9107   89.6073   14.5521 O.2     1  UNL1       -0.2729
      4 H          65.3552   89.1982   14.2090 H       1  UNL1        0.1568
      5 C          63.5756   85.1645   14.5533 C.ar    1  UNL1        0.0512
      6 C          63.4975   85.5451   16.0021 C.ar    1  UNL1        0.1073
      7 N          63.8037   87.0092   16.1140 N.ar    1  UNL1       -0.2224
      8 C          64.0710   87.5336   14.7342 C.ar    1  UNL1        0.1656
      9 S          63.9300   86.3934   13.7697 S.2     1  UNL1       -0.0513
     10 N          62.6354   79.6879   12.2899 N.pl3   1  UNL1       -0.3570
     11 C          62.8704   81.0571   12.8557 C.ar    1  UNL1        0.0415
     12 C          62.1090   81.5091   14.0664 C.ar    1  UNL1        0.0141
     13 C          62.3440   82.8782   14.6323 C.ar    1  UNL1        0.0018
     14 C          63.3406   83.7953   13.9875 C.ar    1  UNL1        0.0077
     15 C          64.1020   83.3433   12.7768 C.ar    1  UNL1        0.0018
     16 C          63.8670   81.9741   12.2109 C.ar    1  UNL1        0.0141
     17 H          61.9813   79.0860   12.7131 H       1  UNL1        0.1424
     18 H          63.1352   79.3912   11.4952 H       1  UNL1        0.1424
     19 C          63.6855   91.4020   13.9367 C.3     1  UNL1        0.1799
     20 N          64.4570   91.6948   12.6841 N.am    1  UNL1       -0.2636
     21 C          63.9561   91.1962   11.3609 C.2     1  UNL1        0.2497
     22 O          64.7276   91.4890   10.1083 O.2     1  UNL1       -0.2699
     23 C          62.6837   90.4049   11.2905 C.ar    1  UNL1        0.0567
     24 C          62.7351   88.9082   11.2057 C.ar    1  UNL1        0.0252
     25 C          61.4627   88.1170   11.1352 C.ar    1  UNL1        0.0990
     26 N          60.1390   88.8224   11.1496 N.ar    1  UNL1       -0.2423
     27 C          60.0877   90.3192   11.2344 C.ar    1  UNL1        0.0990
     28 C          61.3600   91.1104   11.3048 C.ar    1  UNL1        0.0252
     29 C          65.7294   92.4860   12.7546 C.3     1  UNL1        0.1209
     30 C          66.3854   92.9651   11.4936 C.ar    1  UNL1       -0.0023
     31 C          65.9509   94.2563   10.8658 C.ar    1  UNL1       -0.0026
     32 C          66.6069   94.7355    9.6049 C.ar    1  UNL1       -0.0003
     33 C          67.6976   93.9234    8.9716 C.ar    1  UNL1       -0.0000
     34 C          68.1321   92.6322    9.5993 C.ar    1  UNL1       -0.0003
     35 C          67.4761   92.1531   10.8603 C.ar    1  UNL1       -0.0026
@<TRIPOS>BOND
     1    10    11    1
     2    11    12   ar
     3    12    13   ar
     4    13    14   ar
     5    14     5    1
     6     5     6   ar
     7     6     7   ar
     8     7     8   ar
     9     8     1    1
    10     1     2   am
    11     2     3    2
    12     2    19    1
    13    19    20    1
    14    20    29    1
    15    29    30    1
    16    30    31   ar
    17    31    32   ar
    18    32    33   ar
    19    33    34   ar
    20    34    35   ar
    21    20    21   am
    22    21    22    2
    23    21    23    1
    24    23    24   ar
    25    24    25   ar
    26    25    26   ar
    27    26    27   ar
    28    27    28   ar
    29     8     9   ar
    30    14    15   ar
    31    15    16   ar
    32    16    11   ar
    33     9     5   ar
    34    35    30   ar
    35    28    23   ar
    36    10    17    1
    37    10    18    1
    38     1     4    1
@<TRIPOS>MOLECULE
*****
 35 38 0 0 0
SMALL
GASTEIGER

@<TRIPOS>ATOM
      1 N          63.1494   88.2808   12.9559 N.am    1  UNL1       -0.2627
      2 C          63.8546   89.3249   13.7700 C.2     1  UNL1        0.2478
      3 O          64.8518   88.9156   14.8130 O.2     1  UNL1       -0.2729
      4 H          62.4948   88.5495   12.2713 H       1  UNL1        0.1568
      5 C          63.5268   84.4181   12.9046 C.ar    1  UNL1        0.0512
      6 C          64.2548   84.7637   14.1697 C.ar    1  UNL1        0.1073
      7 N          64.2021   86.2528   14.3430 N.ar    1  UNL1       -0.2224
      8 C          63.4414   86.8275   13.1849 C.ar    1  UNL1        0.1656
      9 S          63.0241   85.6936   12.2959 S.2     1  UNL1       -0.0513
     10 N          62.7602   78.9024   10.6710 N.pl3   1  UNL1       -0.3570
     11 C          62.9519   80.2813   11.2294 C.ar    1  UNL1        0.0415
     12 C          63.4772   81.3792   10.3527 C.ar    1  UNL1        0.0141
     13 C          63.6688   82.7581   10.9111 C.ar    1  UNL1        0.0018
     14 C          63.3352   83.0392   12.3462 C.ar    1  UNL1        0.0077
     15 C          62.8099   81.9413   13.2229 C.ar    1  UNL1        0.0018
     16 C          62.6182   80.5624   12.6645 C.ar    1  UNL1        0.0141
     17 H          62.9793   78.7179    9.7290 H       1  UNL1        0.1424
     18 H          62.4155   78.1818   11.2464 H       1  UNL1        0.1424
     19 C          63.5625   90.7782   13.5409 C.3     1  UNL1        0.1799
     20 N          64.2302   91.5088   12.4138 N.am    1  UNL1       -0.2636
     21 C          63.6945   91.3853   11.0182 C.2     1  UNL1        0.2497
     22 O          64.3622   92.1159    9.8911 O.2     1  UNL1       -0.2699
     23 C          62.4910   90.5311   10.7496 C.ar    1  UNL1        0.0567
     24 C          61.1492   90.9369   11.2833 C.ar    1  UNL1        0.0252
     25 C          59.9457   90.0828   11.0148 C.ar    1  UNL1        0.0990
     26 N          60.0841   88.8229   10.2126 N.ar    1  UNL1       -0.2423
     27 C          61.4259   88.4171    9.6788 C.ar    1  UNL1        0.0990
     28 C          62.6294   89.2713    9.9474 C.ar    1  UNL1        0.0252
     29 C          65.4337   92.3629   12.6824 C.3     1  UNL1        0.1209
     30 C          66.2256   92.9239   11.5386 C.ar    1  UNL1       -0.0023
     31 C          67.2649   92.0807   10.8611 C.ar    1  UNL1       -0.0026
     32 C          68.0569   92.6416    9.7173 C.ar    1  UNL1       -0.0003
     33 C          67.8095   94.0457    9.2510 C.ar    1  UNL1       -0.0000
     34 C          66.7702   94.8888    9.9285 C.ar    1  UNL1       -0.0003
     35 C          65.9783   94.3279   11.0723 C.ar    1  UNL1       -0.0026
@<TRIPOS>BOND
     1    10    11    1
     2    11    12   ar
     3    12    13   ar
     4    13    14   ar
     5    14     5    1
     6     5     6   ar
     7     6     7   ar
     8     7     8   ar
     9     8     1    1
    10     1     2   am
    11     2     3    2
    12     2    19    1
    13    19    20    1
    14    20    29    1
    15    29    30    1
    16    30    31   ar
    17    31    32   ar
    18    32    33   ar
    19    33    34   ar
    20    34    35   ar
    21    20    21   am
    22    21    22    2
    23    21    23    1
    24    23    24   ar
    25    24    25   ar
    26    25    26   ar
    27    26    27   ar
    28    27    28   ar
    29     8     9   ar
    30    14    15   ar
    31    15    16   ar
    32    16    11   ar
    33     9     5   ar
    34    35    30   ar
    35    28    23   ar
    36    10    17    1
    37    10    18    1
    38     1     4    1
