@<TRIPOS>MOLECULE
*****
 26 29 0 0 0
SMALL
GASTEIGER

@<TRIPOS>ATOM
      1 C          62.5731   89.7205   10.7943 C.ar    1  UNL1        0.0589
      2 C          62.4392   88.3632   11.4184 C.ar    1  UNL1        0.0317
      3 C          61.4706   87.3686   10.8502 C.ar    1  UNL1        0.0527
      4 C          60.6359   87.7316    9.6579 C.ar    1  UNL1        0.0489
      5 C          59.6044   86.9653    8.8841 C.ar    1  UNL1        0.0249
      6 C          59.1008   87.8491    7.7818 C.ar    1  UNL1        0.1006
      7 N          59.8210   89.1617    7.8743 N.ar    1  UNL1       -0.2269
      8 C          60.7698   89.0890    9.0338 C.ar    1  UNL1        0.1417
      9 N          61.7384   90.0835    9.6020 N.ar    1  UNL1       -0.3385
     10 H          61.8262   90.9744    9.1924 H       1  UNL1        0.1674
     11 F          66.4473   93.6988   13.0667 F       1  UNL1       -0.2018
     12 C          65.4788   92.7042   12.4987 C.ar    1  UNL1        0.1674
     13 C          65.0928   92.7759   11.0509 C.ar    1  UNL1        0.0320
     14 C          64.1242   91.7813   10.4828 C.ar    1  UNL1        0.0039
     15 C          63.5417   90.7151   11.3625 C.ar    1  UNL1        0.0180
     16 C          63.9276   90.6434   12.8101 C.ar    1  UNL1        0.0334
     17 C          64.8962   91.6380   13.3783 C.ar    1  UNL1        0.1674
     18 F          65.2821   91.5664   14.8259 F       1  UNL1       -0.2018
     19 N          61.3368   86.0112   11.4744 N.pl3   1  UNL1       -0.3123
     20 H          60.5174   85.7740   11.9658 H       1  UNL1        0.1522
     21 C          62.4514   85.0152   11.3498 C.ar    1  UNL1        0.0514
     22 C          63.1109   84.4697   12.5817 C.ar    1  UNL1        0.0353
     23 C          64.2255   83.4737   12.4571 C.ar    1  UNL1        0.1002
     24 N          64.6808   83.0233   11.1007 N.ar    1  UNL1       -0.2422
     25 C          64.0213   83.5688    9.8688 C.ar    1  UNL1        0.1002
     26 C          62.9067   84.5648    9.9934 C.ar    1  UNL1        0.0353
@<TRIPOS>BOND
     1    11    12    1
     2    12    13   ar
     3    13    14   ar
     4    14    15   ar
     5    15     1    1
     6     1     2   ar
     7     2     3   ar
     8     3    19    1
     9    19    21    1
    10    21    22   ar
    11    22    23   ar
    12    23    24   ar
    13    24    25   ar
    14    25    26   ar
    15     3     4   ar
    16     4     5   ar
    17     5     6   ar
    18     6     7   ar
    19     7     8   ar
    20     8     9   ar
    21    15    16   ar
    22    16    17   ar
    23    17    18    1
    24    17    12   ar
    25     9     1   ar
    26    26    21   ar
    27     8     4    1
    28    19    20    1
    29     9    10    1
@<TRIPOS>MOLECULE
*****
 26 29 0 0 0
SMALL
GASTEIGER

@<TRIPOS>ATOM
      1 C          62.5835   89.7252   10.8179 C.ar    1  UNL1        0.0589
      2 C          62.4454   88.3665   11.4380 C.ar    1  UNL1        0.0317
      3 C          61.4737   87.3766   10.8670 C.ar    1  UNL1        0.0527
      4 C          60.6401   87.7456    9.6758 C.ar    1  UNL1        0.0489
      5 C          59.6061   86.9849    8.8998 C.ar    1  UNL1        0.0249
      6 C          59.1053   87.8735    7.8001 C.ar    1  UNL1        0.1006
      7 N          59.8296   89.1835    7.8964 N.ar    1  UNL1       -0.2269
      8 C          60.7782   89.1045    9.0557 C.ar    1  UNL1        0.1417
      9 N          61.7500   90.0942    9.6267 N.ar    1  UNL1       -0.3385
     10 H          61.8406   90.9861    9.2197 H       1  UNL1        0.1674
     11 F          66.4704   93.6844   13.1021 F       1  UNL1       -0.2018
     12 C          65.4987   92.6946   12.5311 C.ar    1  UNL1        0.1674
     13 C          64.8897   91.6462   13.4143 C.ar    1  UNL1        0.0320
     14 C          63.9180   90.6564   12.8432 C.ar    1  UNL1        0.0039
     15 C          63.5553   90.7150   11.3890 C.ar    1  UNL1        0.0180
     16 C          64.1642   91.7633   10.5058 C.ar    1  UNL1        0.0334
     17 C          65.1359   92.7532   11.0768 C.ar    1  UNL1        0.1674
     18 F          65.7449   93.8015   10.1936 F       1  UNL1       -0.2018
     19 N          61.3356   86.0178   11.4872 N.pl3   1  UNL1       -0.3123
     20 H          60.5125   85.7792   11.9718 H       1  UNL1        0.1522
     21 C          62.4516   85.0225   11.3691 C.ar    1  UNL1        0.0514
     22 C          63.1144   84.4889   12.6044 C.ar    1  UNL1        0.0353
     23 C          64.2304   83.4937   12.4864 C.ar    1  UNL1        0.1002
     24 N          64.6836   83.0320   11.1330 N.ar    1  UNL1       -0.2422
     25 C          64.0207   83.5656    9.8978 C.ar    1  UNL1        0.1002
     26 C          62.9047   84.5608   10.0158 C.ar    1  UNL1        0.0353
@<TRIPOS>BOND
     1    11    12    1
     2    12    13   ar
     3    13    14   ar
     4    14    15   ar
     5    15     1    1
     6     1     2   ar
     7     2     3   ar
     8     3    19    1
     9    19    21    1
    10    21    22   ar
    11    22    23   ar
    12    23    24   ar
    13    24    25   ar
    14    25    26   ar
    15     3     4   ar
    16     4     5   ar
    17     5     6   ar
    18     6     7   ar
    19     7     8   ar
    20     8     9   ar
    21    15    16   ar
    22    16    17   ar
    23    17    18    1
    24    17    12   ar
    25     9     1   ar
    26    26    21   ar
    27     8     4    1
    28    19    20    1
    29     9    10    1
@<TRIPOS>MOLECULE
*****
 26 29 0 0 0
SMALL
GASTEIGER

@<TRIPOS>ATOM
      1 C          62.8420   89.8365   11.0792 C.ar    1  UNL1        0.0589
      2 C          63.1289   89.5890   12.5304 C.ar    1  UNL1        0.0317
      3 C          64.0623   90.4963   13.2759 C.ar    1  UNL1        0.0527
      4 C          64.7089   91.6511   12.5699 C.ar    1  UNL1        0.0489
      5 C          65.6650   92.7069   13.0400 C.ar    1  UNL1        0.0249
      6 C          65.9691   93.6069   11.8792 C.ar    1  UNL1        0.1006
      7 N          65.2009   93.1073   10.6916 N.ar    1  UNL1       -0.2269
      8 C          64.4220   91.8986   11.1185 C.ar    1  UNL1        0.1417
      9 N          63.4886   90.9913   10.3732 N.ar    1  UNL1       -0.3385
     10 H          63.3003   91.1537    9.4206 H       1  UNL1        0.1674
     11 F          59.1084   86.2073    8.0976 F       1  UNL1       -0.2018
     12 C          60.0418   87.1146    8.8430 C.ar    1  UNL1        0.1674
     13 C          60.9486   86.5546    9.8985 C.ar    1  UNL1        0.0320
     14 C          61.8820   87.4619   10.6439 C.ar    1  UNL1        0.0039
     15 C          61.9086   88.9292   10.3337 C.ar    1  UNL1        0.0180
     16 C          61.0019   89.4893    9.2783 C.ar    1  UNL1        0.0334
     17 C          60.0684   88.5820    8.5328 C.ar    1  UNL1        0.1674
     18 F          59.1617   89.1420    7.4774 F       1  UNL1       -0.2018
     19 N          64.3492   90.2487   14.7273 N.pl3   1  UNL1       -0.3123
     20 H          64.7728   90.9508   15.2721 H       1  UNL1        0.1522
     21 C          63.9906   88.9314   15.3486 C.ar    1  UNL1        0.0514
     22 C          63.1833   88.8933   16.6122 C.ar    1  UNL1        0.0353
     23 C          62.8246   87.5760   17.2336 C.ar    1  UNL1        0.1002
     24 N          63.2732   86.2969   16.5913 N.ar    1  UNL1       -0.2422
     25 C          64.0805   86.3350   15.3276 C.ar    1  UNL1        0.1002
     26 C          64.4392   87.6523   14.7063 C.ar    1  UNL1        0.0353
@<TRIPOS>BOND
     1    11    12    1
     2    12    13   ar
     3    13    14   ar
     4    14    15   ar
     5    15     1    1
     6     1     2   ar
     7     2     3   ar
     8     3    19    1
     9    19    21    1
    10    21    22   ar
    11    22    23   ar
    12    23    24   ar
    13    24    25   ar
    14    25    26   ar
    15     3     4   ar
    16     4     5   ar
    17     5     6   ar
    18     6     7   ar
    19     7     8   ar
    20     8     9   ar
    21    15    16   ar
    22    16    17   ar
    23    17    18    1
    24    17    12   ar
    25     9     1   ar
    26    26    21   ar
    27     8     4    1
    28    19    20    1
    29     9    10    1
@<TRIPOS>MOLECULE
*****
 26 29 0 0 0
SMALL
GASTEIGER

@<TRIPOS>ATOM
      1 C          62.9560   85.2492   12.7805 C.ar    1  UNL1        0.0589
      2 C          62.3999   85.9807   11.5950 C.ar    1  UNL1        0.0317
      3 C          62.5613   87.4682   11.4880 C.ar    1  UNL1        0.0527
      4 C          63.2790   88.2241   12.5666 C.ar    1  UNL1        0.0489
      5 C          63.5899   89.6820   12.7338 C.ar    1  UNL1        0.0249
      6 C          64.3382   89.8514   14.0227 C.ar    1  UNL1        0.1006
      7 N          64.4898   88.4983   14.6521 N.ar    1  UNL1       -0.2269
      8 C          63.8352   87.4926   13.7522 C.ar    1  UNL1        0.1417
      9 N          63.6737   86.0051   13.8591 N.ar    1  UNL1       -0.3385
     10 H          64.0388   85.5250   14.6372 H       1  UNL1        0.1674
     11 F          62.3102   79.2994   13.2085 F       1  UNL1       -0.2018
     12 C          62.4716   80.7868   13.1015 C.ar    1  UNL1        0.1674
     13 C          62.2950   81.6497   14.3157 C.ar    1  UNL1        0.0320
     14 C          62.4565   83.1372   14.2087 C.ar    1  UNL1        0.0039
     15 C          62.7946   83.7617   12.8874 C.ar    1  UNL1        0.0180
     16 C          62.9712   82.8989   11.6733 C.ar    1  UNL1        0.0334
     17 C          62.8097   81.4114   11.7803 C.ar    1  UNL1        0.1674
     18 F          62.9863   80.5486   10.5661 F       1  UNL1       -0.2018
     19 N          62.0051   88.1996   10.3024 N.pl3   1  UNL1       -0.3123
     20 H          62.1541   89.1681   10.2071 H       1  UNL1        0.1522
     21 C          61.2217   87.4555    9.2619 C.ar    1  UNL1        0.0514
     22 C          59.8132   87.8649    8.9484 C.ar    1  UNL1        0.0353
     23 C          59.0297   87.1209    7.9080 C.ar    1  UNL1        0.1002
     24 N          59.6549   85.9673    7.1810 N.ar    1  UNL1       -0.2422
     25 C          61.0635   85.5579    7.4945 C.ar    1  UNL1        0.1002
     26 C          61.8469   86.3019    8.5349 C.ar    1  UNL1        0.0353
@<TRIPOS>BOND
     1    11    12    1
     2    12    13   ar
     3    13    14   ar
     4    14    15   ar
     5    15     1    1
     6     1     2   ar
     7     2     3   ar
     8     3    19    1
     9    19    21    1
    10    21    22   ar
    11    22    23   ar
    12    23    24   ar
    13    24    25   ar
    14    25    26   ar
    15     3     4   ar
    16     4     5   ar
    17     5     6   ar
    18     6     7   ar
    19     7     8   ar
    20     8     9   ar
    21    15    16   ar
    22    16    17   ar
    23    17    18    1
    24    17    12   ar
    25     9     1   ar
    26    26    21   ar
    27     8     4    1
    28    19    20    1
    29     9    10    1
@<TRIPOS>MOLECULE
*****
 26 29 0 0 0
SMALL
GASTEIGER

@<TRIPOS>ATOM
      1 C          62.7660   89.5477   10.9839 C.ar    1  UNL1        0.0589
      2 C          63.2374   90.8615   10.4349 C.ar    1  UNL1        0.0317
      3 C          64.0935   91.7619   11.2754 C.ar    1  UNL1        0.0527
      4 C          64.4782   91.3484   12.6650 C.ar    1  UNL1        0.0489
      5 C          65.3051   92.0217   13.7199 C.ar    1  UNL1        0.0249
      6 C          65.3448   91.1239   14.9209 C.ar    1  UNL1        0.1006
      7 N          64.5423   89.8957   14.6083 N.ar    1  UNL1       -0.2269
      8 C          64.0067   90.0345   13.2141 C.ar    1  UNL1        0.1417
      9 N          63.1506   89.1341   12.3735 N.ar    1  UNL1       -0.3385
     10 H          62.8412   88.2718   12.7339 H       1  UNL1        0.1674
     11 F          59.3417   85.9461    7.6220 F       1  UNL1       -0.2018
     12 C          60.1978   86.8465    8.4625 C.ar    1  UNL1        0.1674
     13 C          61.2296   86.2592    9.3792 C.ar    1  UNL1        0.0320
     14 C          62.0856   87.1596   10.2197 C.ar    1  UNL1        0.0039
     15 C          61.9099   88.6473   10.1434 C.ar    1  UNL1        0.0180
     16 C          60.8781   89.2346    9.2267 C.ar    1  UNL1        0.0334
     17 C          60.0220   88.3342    8.3861 C.ar    1  UNL1        0.1674
     18 F          58.9903   88.9214    7.4694 F       1  UNL1       -0.2018
     19 N          64.5649   93.0758   10.7263 N.pl3   1  UNL1       -0.3123
     20 H          63.9354   93.8279   10.6406 H       1  UNL1        0.1522
     21 C          65.9955   93.2439   10.3078 C.ar    1  UNL1        0.0514
     22 C          66.9567   92.1007   10.4467 C.ar    1  UNL1        0.0353
     23 C          68.3873   92.2687   10.0282 C.ar    1  UNL1        0.1002
     24 N          68.8567   93.5798    9.4708 N.ar    1  UNL1       -0.2422
     25 C          67.8955   94.7229    9.3318 C.ar    1  UNL1        0.1002
     26 C          66.4649   94.5549    9.7503 C.ar    1  UNL1        0.0353
@<TRIPOS>BOND
     1    11    12    1
     2    12    13   ar
     3    13    14   ar
     4    14    15   ar
     5    15     1    1
     6     1     2   ar
     7     2     3   ar
     8     3    19    1
     9    19    21    1
    10    21    22   ar
    11    22    23   ar
    12    23    24   ar
    13    24    25   ar
    14    25    26   ar
    15     3     4   ar
    16     4     5   ar
    17     5     6   ar
    18     6     7   ar
    19     7     8   ar
    20     8     9   ar
    21    15    16   ar
    22    16    17   ar
    23    17    18    1
    24    17    12   ar
    25     9     1   ar
    26    26    21   ar
    27     8     4    1
    28    19    20    1
    29     9    10    1
@<TRIPOS>MOLECULE
*****
 26 29 0 0 0
SMALL
GASTEIGER

@<TRIPOS>ATOM
      1 C          62.0410   85.9498   10.6919 C.ar    1  UNL1        0.0589
      2 C          62.0615   87.2650   11.4127 C.ar    1  UNL1        0.0317
      3 C          61.3721   88.4572   10.8179 C.ar    1  UNL1        0.0527
      4 C          60.6622   88.3339    9.5023 C.ar    1  UNL1        0.0489
      5 C          59.9002   89.3272    8.6761 C.ar    1  UNL1        0.0249
      6 C          59.4087   88.6258    7.4447 C.ar    1  UNL1        0.1006
      7 N          59.8670   87.1990    7.5098 N.ar    1  UNL1       -0.2269
      8 C          60.6417   87.0186    8.7815 C.ar    1  UNL1        0.1417
      9 N          61.3310   85.8265    9.3763 N.ar    1  UNL1       -0.3385
     10 H          61.3175   84.9633    8.9033 H       1  UNL1        0.1674
     11 F          64.7984   81.1814   13.0707 F       1  UNL1       -0.2018
     12 C          64.1091   82.3735   12.4760 C.ar    1  UNL1        0.1674
     13 C          64.1785   82.6201   10.9981 C.ar    1  UNL1        0.0320
     14 C          63.4892   83.8122   10.4034 C.ar    1  UNL1        0.0039
     15 C          62.7303   84.7577   11.2867 C.ar    1  UNL1        0.0180
     16 C          62.6609   84.5111   12.7646 C.ar    1  UNL1        0.0334
     17 C          63.3502   83.3190   13.3593 C.ar    1  UNL1        0.1674
     18 F          63.2808   83.0724   14.8372 F       1  UNL1       -0.2018
     19 N          61.3928   89.7725   11.5388 N.pl3   1  UNL1       -0.3123
     20 H          60.5658   90.1285   11.9371 H       1  UNL1        0.1522
     21 C          62.6733   90.5452   11.6528 C.ar    1  UNL1        0.0514
     22 C          63.2287   91.2572   10.4551 C.ar    1  UNL1        0.0353
     23 C          64.5092   92.0300   10.5690 C.ar    1  UNL1        0.1002
     24 N          65.2343   92.0908   11.8807 N.ar    1  UNL1       -0.2422
     25 C          64.6789   91.3789   13.0784 C.ar    1  UNL1        0.1002
     26 C          63.3983   90.6061   12.9645 C.ar    1  UNL1        0.0353
@<TRIPOS>BOND
     1    11    12    1
     2    12    13   ar
     3    13    14   ar
     4    14    15   ar
     5    15     1    1
     6     1     2   ar
     7     2     3   ar
     8     3    19    1
     9    19    21    1
    10    21    22   ar
    11    22    23   ar
    12    23    24   ar
    13    24    25   ar
    14    25    26   ar
    15     3     4   ar
    16     4     5   ar
    17     5     6   ar
    18     6     7   ar
    19     7     8   ar
    20     8     9   ar
    21    15    16   ar
    22    16    17   ar
    23    17    18    1
    24    17    12   ar
    25     9     1   ar
    26    26    21   ar
    27     8     4    1
    28    19    20    1
    29     9    10    1
@<TRIPOS>MOLECULE
*****
 26 29 0 0 0
SMALL
GASTEIGER

@<TRIPOS>ATOM
      1 C          64.1256   89.9758   13.7505 C.ar    1  UNL1        0.0589
      2 C          63.2713   89.9709   12.5177 C.ar    1  UNL1        0.0317
      3 C          63.5323   90.9599   11.4204 C.ar    1  UNL1        0.0527
      4 C          64.6475   91.9538   11.5562 C.ar    1  UNL1        0.0489
      5 C          65.1392   93.0410   10.6473 C.ar    1  UNL1        0.0249
      6 C          66.2973   93.7178   11.3185 C.ar    1  UNL1        0.1006
      7 N          66.5215   93.0489   12.6423 N.ar    1  UNL1       -0.2269
      8 C          65.5018   91.9586   12.7892 C.ar    1  UNL1        0.1417
      9 N          65.2408   90.9696   13.8863 N.ar    1  UNL1       -0.3385
     10 H          65.8015   90.9728   14.6956 H       1  UNL1        0.1674
     11 F          63.0818   86.0200   18.1395 F       1  UNL1       -0.2018
     12 C          63.3427   87.0090   17.0423 C.ar    1  UNL1        0.1674
     13 C          62.9563   88.4472   17.2213 C.ar    1  UNL1        0.0320
     14 C          63.2172   89.4361   16.1241 C.ar    1  UNL1        0.0039
     15 C          63.8646   88.9868   14.8478 C.ar    1  UNL1        0.0180
     16 C          64.2511   87.5486   14.6687 C.ar    1  UNL1        0.0334
     17 C          63.9901   86.5596   15.7660 C.ar    1  UNL1        0.1674
     18 F          64.3766   85.1214   15.5869 F       1  UNL1       -0.2018
     19 N          62.6779   90.9550   10.1874 N.pl3   1  UNL1       -0.3123
     20 H          62.6184   91.7619    9.6266 H       1  UNL1        0.1522
     21 C          61.9143   89.7206    9.8091 C.ar    1  UNL1        0.0514
     22 C          62.5546   88.3711    9.9463 C.ar    1  UNL1        0.0353
     23 C          61.7911   87.1367    9.5679 C.ar    1  UNL1        0.1002
     24 N          60.3872   87.2518    9.0523 N.ar    1  UNL1       -0.2422
     25 C          59.7469   88.6013    8.9151 C.ar    1  UNL1        0.1002
     26 C          60.5104   89.8357    9.2935 C.ar    1  UNL1        0.0353
@<TRIPOS>BOND
     1    11    12    1
     2    12    13   ar
     3    13    14   ar
     4    14    15   ar
     5    15     1    1
     6     1     2   ar
     7     2     3   ar
     8     3    19    1
     9    19    21    1
    10    21    22   ar
    11    22    23   ar
    12    23    24   ar
    13    24    25   ar
    14    25    26   ar
    15     3     4   ar
    16     4     5   ar
    17     5     6   ar
    18     6     7   ar
    19     7     8   ar
    20     8     9   ar
    21    15    16   ar
    22    16    17   ar
    23    17    18    1
    24    17    12   ar
    25     9     1   ar
    26    26    21   ar
    27     8     4    1
    28    19    20    1
    29     9    10    1
@<TRIPOS>MOLECULE
*****
 26 29 0 0 0
SMALL
GASTEIGER

@<TRIPOS>ATOM
      1 C          62.6808   88.6078   11.6147 C.ar    1  UNL1        0.0589
      2 C          63.1558   87.6922   12.7037 C.ar    1  UNL1        0.0317
      3 C          64.0177   88.2258   13.8095 C.ar    1  UNL1        0.0527
      4 C          64.4044   89.6749   13.8261 C.ar    1  UNL1        0.0489
      5 C          65.2368   90.4807   14.7790 C.ar    1  UNL1        0.0249
      6 C          65.2762   91.8943   14.2788 C.ar    1  UNL1        0.1006
      7 N          64.4682   91.9622   13.0169 N.ar    1  UNL1       -0.2269
      8 C          63.9294   90.5905   12.7371 C.ar    1  UNL1        0.1417
      9 N          63.0676   90.0570   11.6314 N.ar    1  UNL1       -0.3385
     10 H          62.7558   90.6579   10.9166 H       1  UNL1        0.1674
     11 F          59.2336   86.4736    7.1918 F       1  UNL1       -0.2018
     12 C          60.0954   87.0071    8.2975 C.ar    1  UNL1        0.1674
     13 C          60.8579   86.0612    9.1771 C.ar    1  UNL1        0.0320
     14 C          61.7197   86.5948   10.2828 C.ar    1  UNL1        0.0039
     15 C          61.8190   88.0743   10.5089 C.ar    1  UNL1        0.0180
     16 C          61.0565   89.0202    9.6294 C.ar    1  UNL1        0.0334
     17 C          60.1947   88.4867    8.5236 C.ar    1  UNL1        0.1674
     18 F          59.4323   89.4326    7.6440 F       1  UNL1       -0.2018
     19 N          64.4927   87.3101   14.8985 N.pl3   1  UNL1       -0.3123
     20 H          65.0691   87.6573   15.6171 H       1  UNL1        0.1522
     21 C          64.0894   85.8653   14.8926 C.ar    1  UNL1        0.0514
     22 C          64.8030   84.8912   14.0028 C.ar    1  UNL1        0.0353
     23 C          64.3998   83.4464   13.9969 C.ar    1  UNL1        0.1002
     24 N          63.2830   82.9758   14.8808 N.ar    1  UNL1       -0.2422
     25 C          62.5694   83.9500   15.7706 C.ar    1  UNL1        0.1002
     26 C          62.9726   85.3947   15.7766 C.ar    1  UNL1        0.0353
@<TRIPOS>BOND
     1    11    12    1
     2    12    13   ar
     3    13    14   ar
     4    14    15   ar
     5    15     1    1
     6     1     2   ar
     7     2     3   ar
     8     3    19    1
     9    19    21    1
    10    21    22   ar
    11    22    23   ar
    12    23    24   ar
    13    24    25   ar
    14    25    26   ar
    15     3     4   ar
    16     4     5   ar
    17     5     6   ar
    18     6     7   ar
    19     7     8   ar
    20     8     9   ar
    21    15    16   ar
    22    16    17   ar
    23    17    18    1
    24    17    12   ar
    25     9     1   ar
    26    26    21   ar
    27     8     4    1
    28    19    20    1
    29     9    10    1
@<TRIPOS>MOLECULE
*****
 26 29 0 0 0
SMALL
GASTEIGER

@<TRIPOS>ATOM
      1 C          62.0703   88.1585   11.2234 C.ar    1  UNL1        0.0589
      2 C          62.4397   89.4539   11.8832 C.ar    1  UNL1        0.0317
      3 C          63.2794   89.4499   13.1262 C.ar    1  UNL1        0.0527
      4 C          63.7495   88.1503   13.7094 C.ar    1  UNL1        0.0489
      5 C          64.5829   87.8348   14.9160 C.ar    1  UNL1        0.0249
      6 C          64.7285   86.3444   15.0019 C.ar    1  UNL1        0.1006
      7 N          63.9852   85.7387   13.8484 N.ar    1  UNL1       -0.2269
      8 C          63.3801   86.8549   13.0495 C.ar    1  UNL1        0.1417
      9 N          62.5405   86.8590   11.8065 N.ar    1  UNL1       -0.3385
     10 H          62.2981   86.0088   11.3735 H       1  UNL1        0.1674
     11 F          58.7119   88.1749    6.2514 F       1  UNL1       -0.2018
     12 C          59.5515   88.1708    7.4944 C.ar    1  UNL1        0.1674
     13 C          59.8736   89.4622    8.1862 C.ar    1  UNL1        0.0320
     14 C          60.7132   89.4581    9.4292 C.ar    1  UNL1        0.0039
     15 C          61.2307   88.1626    9.9803 C.ar    1  UNL1        0.0180
     16 C          60.9087   86.8713    9.2886 C.ar    1  UNL1        0.0334
     17 C          60.0690   86.8753    8.0455 C.ar    1  UNL1        0.1674
     18 F          59.7470   85.5840    7.3538 F       1  UNL1       -0.2018
     19 N          63.6487   90.7454   13.7860 N.pl3   1  UNL1       -0.3123
     20 H          63.0133   91.1863   14.3951 H       1  UNL1        0.1522
     21 C          64.9863   91.3691   13.5177 C.ar    1  UNL1        0.0514
     22 C          66.1158   91.1658   14.4836 C.ar    1  UNL1        0.0353
     23 C          67.4533   91.7894   14.2154 C.ar    1  UNL1        0.1002
     24 N          67.6614   92.6163   12.9813 N.ar    1  UNL1       -0.2422
     25 C          66.5319   92.8196   12.0154 C.ar    1  UNL1        0.1002
     26 C          65.1943   92.1959   12.2836 C.ar    1  UNL1        0.0353
@<TRIPOS>BOND
     1    11    12    1
     2    12    13   ar
     3    13    14   ar
     4    14    15   ar
     5    15     1    1
     6     1     2   ar
     7     2     3   ar
     8     3    19    1
     9    19    21    1
    10    21    22   ar
    11    22    23   ar
    12    23    24   ar
    13    24    25   ar
    14    25    26   ar
    15     3     4   ar
    16     4     5   ar
    17     5     6   ar
    18     6     7   ar
    19     7     8   ar
    20     8     9   ar
    21    15    16   ar
    22    16    17   ar
    23    17    18    1
    24    17    12   ar
    25     9     1   ar
    26    26    21   ar
    27     8     4    1
    28    19    20    1
    29     9    10    1
