@<TRIPOS>MOLECULE
*****
 27 29 0 0 0
SMALL
GASTEIGER

@<TRIPOS>ATOM
      1 C          63.6998   87.0975   13.5376 C.ar    1  UNL1        0.0000
      2 C          64.3802   86.3959   14.6755 C.ar    1  UNL1       -0.0002
      3 C          64.2272   84.9129   14.8412 C.ar    1  UNL1       -0.0017
      4 C          63.3938   84.1316   13.8691 C.ar    1  UNL1        0.0070
      5 C          62.7134   84.8333   12.7312 C.ar    1  UNL1       -0.0017
      6 C          62.8664   86.3162   12.5655 C.ar    1  UNL1       -0.0002
      7 C          64.7501   90.8603   14.2361 C.ar    1  UNL1        0.0503
      8 C          64.1589   91.5463   13.0404 C.ar    1  UNL1        0.0147
      9 C          63.4147   90.7493   12.0103 C.ar    1  UNL1        0.0013
     10 C          63.2617   89.2664   12.1761 C.ar    1  UNL1        0.0001
     11 C          63.8529   88.5805   13.3718 C.ar    1  UNL1        0.0012
     12 C          64.5971   89.3774   14.4019 C.ar    1  UNL1        0.0147
     13 C          67.6581   92.8675   16.0430 C.3     1  UNL1        0.0949
     14 C          66.9139   92.0705   15.0130 C.2     1  UNL1        0.2266
     15 O          67.5893   91.6867   13.7297 O.2     1  UNL1       -0.2748
     16 N          65.4944   91.6573   15.2662 N.am    1  UNL1       -0.2839
     17 H          65.0511   91.9092   16.1084 H       1  UNL1        0.1549
     18 C          63.2408   82.6487   14.0349 C.3     1  UNL1        0.1412
     19 C          63.0877   81.1658   14.2006 C.3     1  UNL1        0.0401
     20 O          62.8959   82.8459   15.4812 O.3     1  UNL1       -0.3771
     21 H          62.9148   83.7926   15.6920 H       1  UNL1        0.2112
     22 C          63.5857   82.4514   12.5885 C.ar    1  UNL1        0.0825
     23 C          62.8518   81.5731   11.6189 C.ar    1  UNL1        0.1157
     24 N          63.5377   81.6767   10.2888 N.ar    1  UNL1       -0.2228
     25 C          64.6954   82.6191   10.4364 C.ar    1  UNL1        0.1749
     26 N          64.7250   83.0979   11.8576 N.ar    1  UNL1       -0.3361
     27 H          65.3777   83.7261   12.2431 H       1  UNL1        0.1673
@<TRIPOS>BOND
     1    13    14    1
     2    14    15    2
     3    14    16   am
     4    16     7    1
     5     7     8   ar
     6     8     9   ar
     7     9    10   ar
     8    10    11   ar
     9    11     1    1
    10     1     2   ar
    11     2     3   ar
    12     3     4   ar
    13     4    18    1
    14    18    19    1
    15    18    20    1
    16    18    22    1
    17    22    23   ar
    18    23    24   ar
    19    24    25   ar
    20    25    26   ar
    21     4     5   ar
    22     5     6   ar
    23    11    12   ar
    24    12     7   ar
    25     6     1   ar
    26    26    22   ar
    27    16    17    1
    28    20    21    1
    29    26    27    1
@<TRIPOS>MOLECULE
*****
 27 29 0 0 0
SMALL
GASTEIGER

@<TRIPOS>ATOM
      1 C          63.2858   89.7258   12.0509 C.ar    1  UNL1        0.0000
      2 C          63.5489   91.0160   11.3325 C.ar    1  UNL1       -0.0002
      3 C          64.4550   92.0435   11.9435 C.ar    1  UNL1       -0.0017
      4 C          65.0980   91.7807   13.2730 C.ar    1  UNL1        0.0070
      5 C          64.8348   90.4905   13.9915 C.ar    1  UNL1       -0.0017
      6 C          63.9288   89.4631   13.3804 C.ar    1  UNL1       -0.0002
      7 C          61.8609   86.2218   10.8502 C.ar    1  UNL1        0.0503
      8 C          60.5677   86.6434   10.2179 C.ar    1  UNL1        0.0147
      9 C          60.1805   88.0924   10.1966 C.ar    1  UNL1        0.0013
     10 C          61.0865   89.1198   10.8076 C.ar    1  UNL1        0.0001
     11 C          62.3797   88.6983   11.4399 C.ar    1  UNL1        0.0012
     12 C          62.7669   87.2493   11.4612 C.ar    1  UNL1        0.0147
     13 C          62.9097   82.6400   12.1993 C.3     1  UNL1        0.0949
     14 C          62.5225   84.0890   12.1780 C.2     1  UNL1        0.2266
     15 O          62.4099   84.8542   13.4633 O.2     1  UNL1       -0.2748
     16 N          62.2481   84.7728   10.8715 N.am    1  UNL1       -0.2839
     17 H          62.3220   84.2706   10.0279 H       1  UNL1        0.1549
     18 C          66.0041   92.8081   13.8841 C.3     1  UNL1        0.1412
     19 C          66.9101   93.8355   14.4951 C.3     1  UNL1        0.0401
     20 O          65.4612   92.4786   15.2430 O.3     1  UNL1       -0.3771
     21 H          64.7917   91.7812   15.1634 H       1  UNL1        0.2112
     22 C          66.5469   93.1376   12.5252 C.ar    1  UNL1        0.0825
     23 C          66.3013   94.4048   11.7610 C.ar    1  UNL1        0.1157
     24 N          67.0333   94.3081   10.4553 N.ar    1  UNL1       -0.2228
     25 C          67.7314   92.9811   10.4125 C.ar    1  UNL1        0.1749
     26 N          67.4308   92.2577   11.6917 N.ar    1  UNL1       -0.3361
     27 H          67.7565   91.3625   11.9406 H       1  UNL1        0.1673
@<TRIPOS>BOND
     1    13    14    1
     2    14    15    2
     3    14    16   am
     4    16     7    1
     5     7     8   ar
     6     8     9   ar
     7     9    10   ar
     8    10    11   ar
     9    11     1    1
    10     1     2   ar
    11     2     3   ar
    12     3     4   ar
    13     4    18    1
    14    18    19    1
    15    18    20    1
    16    18    22    1
    17    22    23   ar
    18    23    24   ar
    19    24    25   ar
    20    25    26   ar
    21     4     5   ar
    22     5     6   ar
    23    11    12   ar
    24    12     7   ar
    25     6     1   ar
    26    26    22   ar
    27    16    17    1
    28    20    21    1
    29    26    27    1
@<TRIPOS>MOLECULE
*****
 27 29 0 0 0
SMALL
GASTEIGER

@<TRIPOS>ATOM
      1 C          63.6109   90.6976   11.5757 C.ar    1  UNL1        0.0000
      2 C          63.1785   89.4414   12.2722 C.ar    1  UNL1       -0.0002
      3 C          62.1827   88.5276   11.6213 C.ar    1  UNL1       -0.0017
      4 C          61.6193   88.8701   10.2740 C.ar    1  UNL1        0.0070
      5 C          62.0517   90.1263    9.5775 C.ar    1  UNL1       -0.0017
      6 C          63.0474   91.0400   10.2284 C.ar    1  UNL1       -0.0002
      7 C          66.0754   93.7533   12.1577 C.ar    1  UNL1        0.0503
      8 C          66.5981   93.4388   13.5280 C.ar    1  UNL1        0.0147
      9 C          66.1252   92.2106   14.2476 C.ar    1  UNL1        0.0013
     10 C          65.1294   91.2968   13.5968 C.ar    1  UNL1        0.0001
     11 C          64.6066   91.6113   12.2265 C.ar    1  UNL1        0.0012
     12 C          65.0796   92.8395   11.5070 C.ar    1  UNL1        0.0147
     13 C          67.5971   96.0953    9.3383 C.3     1  UNL1        0.0949
     14 C          67.1241   94.8671   10.0579 C.2     1  UNL1        0.2266
     15 O          67.2269   93.5244    9.3970 O.2     1  UNL1       -0.2748
     16 N          66.5483   94.9815   11.4382 N.am    1  UNL1       -0.2839
     17 H          66.4808   95.8628   11.8719 H       1  UNL1        0.1549
     18 C          60.6236   87.9564    9.6232 C.3     1  UNL1        0.1412
     19 C          59.6278   87.0427    8.9723 C.3     1  UNL1        0.0401
     20 O          59.8152   89.1442    9.1924 O.3     1  UNL1       -0.3771
     21 H          60.2481   89.9574    9.4963 H       1  UNL1        0.2112
     22 C          61.4319   86.7686   10.0540 C.ar    1  UNL1        0.0825
     23 C          62.4749   86.0679    9.2348 C.ar    1  UNL1        0.1157
     24 N          63.0268   84.9391   10.0542 N.ar    1  UNL1       -0.2228
     25 C          62.3249   84.9422   11.3798 C.ar    1  UNL1        0.1749
     26 N          61.3392   86.0729   11.3797 N.ar    1  UNL1       -0.3361
     27 H          60.7371   86.3157   12.1198 H       1  UNL1        0.1673
@<TRIPOS>BOND
     1    13    14    1
     2    14    15    2
     3    14    16   am
     4    16     7    1
     5     7     8   ar
     6     8     9   ar
     7     9    10   ar
     8    10    11   ar
     9    11     1    1
    10     1     2   ar
    11     2     3   ar
    12     3     4   ar
    13     4    18    1
    14    18    19    1
    15    18    20    1
    16    18    22    1
    17    22    23   ar
    18    23    24   ar
    19    24    25   ar
    20    25    26   ar
    21     4     5   ar
    22     5     6   ar
    23    11    12   ar
    24    12     7   ar
    25     6     1   ar
    26    26    22   ar
    27    16    17    1
    28    20    21    1
    29    26    27    1
@<TRIPOS>MOLECULE
*****
 27 29 0 0 0
SMALL
GASTEIGER

@<TRIPOS>ATOM
      1 C          64.1574   91.3165   11.8178 C.ar    1  UNL1        0.0000
      2 C          63.8380   90.1484   12.7030 C.ar    1  UNL1       -0.0002
      3 C          62.9183   89.0679   12.2163 C.ar    1  UNL1       -0.0017
      4 C          62.3180   89.1556   10.8445 C.ar    1  UNL1        0.0070
      5 C          62.6374   90.3237    9.9593 C.ar    1  UNL1       -0.0017
      6 C          63.5571   91.4041   10.4460 C.ar    1  UNL1       -0.0002
      7 C          66.2821   94.6668   11.9228 C.ar    1  UNL1        0.0503
      8 C          66.9163   94.5579   13.2777 C.ar    1  UNL1        0.0147
      9 C          66.6310   93.3685   14.1460 C.ar    1  UNL1        0.0013
     10 C          65.7113   92.2881   13.6594 C.ar    1  UNL1        0.0001
     11 C          65.0771   92.3970   12.3045 C.ar    1  UNL1        0.0012
     12 C          65.3624   93.5863   11.4362 C.ar    1  UNL1        0.0147
     13 C          67.4805   96.8559    8.8371 C.3     1  UNL1        0.0949
     14 C          67.1951   95.6665    9.7054 C.2     1  UNL1        0.2266
     15 O          67.5375   94.2875    9.2246 O.2     1  UNL1       -0.2748
     16 N          66.5675   95.8562   11.0545 N.am    1  UNL1       -0.2839
     17 H          66.3428   96.7613   11.3700 H       1  UNL1        0.1549
     18 C          61.3983   88.0752   10.3578 C.3     1  UNL1        0.1412
     19 C          60.4787   86.9948    9.8711 C.3     1  UNL1        0.0401
     20 O          62.5318   87.4527    9.5977 O.3     1  UNL1       -0.3771
     21 H          63.3368   87.9773    9.7306 H       1  UNL1        0.2112
     22 C          60.2649   88.6976   11.1179 C.ar    1  UNL1        0.0825
     23 C          59.7347   90.0880   10.9287 C.ar    1  UNL1        0.1157
     24 N          58.6046   90.2886   11.8946 N.ar    1  UNL1       -0.2228
     25 C          58.4365   89.0222   12.6808 C.ar    1  UNL1        0.1749
     26 N          59.4625   88.0389   12.2007 N.ar    1  UNL1       -0.3361
     27 H          59.5874   87.1222   12.5373 H       1  UNL1        0.1673
@<TRIPOS>BOND
     1    13    14    1
     2    14    15    2
     3    14    16   am
     4    16     7    1
     5     7     8   ar
     6     8     9   ar
     7     9    10   ar
     8    10    11   ar
     9    11     1    1
    10     1     2   ar
    11     2     3   ar
    12     3     4   ar
    13     4    18    1
    14    18    19    1
    15    18    20    1
    16    18    22    1
    17    22    23   ar
    18    23    24   ar
    19    24    25   ar
    20    25    26   ar
    21     4     5   ar
    22     5     6   ar
    23    11    12   ar
    24    12     7   ar
    25     6     1   ar
    26    26    22   ar
    27    16    17    1
    28    20    21    1
    29    26    27    1
@<TRIPOS>MOLECULE
*****
 27 29 0 0 0
SMALL
GASTEIGER

@<TRIPOS>ATOM
      1 C          63.0163   90.1396   11.8849 C.ar    1  UNL1        0.0000
      2 C          63.5639   89.7865   13.2360 C.ar    1  UNL1       -0.0002
      3 C          64.6158   90.6493   13.8678 C.ar    1  UNL1       -0.0017
      4 C          65.1201   91.8651   13.1485 C.ar    1  UNL1        0.0070
      5 C          64.5725   92.2182   11.7974 C.ar    1  UNL1       -0.0017
      6 C          63.5206   91.3555   11.1656 C.ar    1  UNL1       -0.0002
      7 C          61.2505   87.5735    9.4258 C.ar    1  UNL1        0.0503
      8 C          59.8606   87.5514    9.9894 C.ar    1  UNL1        0.0147
      9 C          59.5226   88.3921   11.1848 C.ar    1  UNL1        0.0013
     10 C          60.5744   89.2548   11.8166 C.ar    1  UNL1        0.0001
     11 C          61.9643   89.2769   11.2531 C.ar    1  UNL1        0.0012
     12 C          62.3024   88.4362   10.0577 C.ar    1  UNL1        0.0147
     13 C          62.7661   84.6598    7.1980 C.3     1  UNL1        0.0949
     14 C          62.4281   85.5005    8.3934 C.2     1  UNL1        0.2266
     15 O          62.9296   85.1088    9.7518 O.2     1  UNL1       -0.2748
     16 N          61.5886   86.7328    8.2305 N.am    1  UNL1       -0.2839
     17 H          61.2594   86.9898    7.3389 H       1  UNL1        0.1549
     18 C          66.1720   92.7279   13.7803 C.3     1  UNL1        0.1412
     19 C          67.2239   93.5906   14.4120 C.3     1  UNL1        0.0401
     20 O          65.6160   92.4121   15.1372 O.3     1  UNL1       -0.3771
     21 H          64.8549   91.8180   15.0445 H       1  UNL1        0.2112
     22 C          66.7279   93.0437   12.4234 C.ar    1  UNL1        0.0825
     23 C          66.4923   94.3044   11.6456 C.ar    1  UNL1        0.1157
     24 N          67.2359   94.1941   10.3475 N.ar    1  UNL1       -0.2228
     25 C          67.9311   92.8651   10.3231 C.ar    1  UNL1        0.1749
     26 N          67.6172   92.1541   11.6060 N.ar    1  UNL1       -0.3361
     27 H          67.9383   91.2605   11.8659 H       1  UNL1        0.1673
@<TRIPOS>BOND
     1    13    14    1
     2    14    15    2
     3    14    16   am
     4    16     7    1
     5     7     8   ar
     6     8     9   ar
     7     9    10   ar
     8    10    11   ar
     9    11     1    1
    10     1     2   ar
    11     2     3   ar
    12     3     4   ar
    13     4    18    1
    14    18    19    1
    15    18    20    1
    16    18    22    1
    17    22    23   ar
    18    23    24   ar
    19    24    25   ar
    20    25    26   ar
    21     4     5   ar
    22     5     6   ar
    23    11    12   ar
    24    12     7   ar
    25     6     1   ar
    26    26    22   ar
    27    16    17    1
    28    20    21    1
    29    26    27    1
@<TRIPOS>MOLECULE
*****
 27 29 0 0 0
SMALL
GASTEIGER

@<TRIPOS>ATOM
      1 C          63.5279   90.8666   11.2063 C.ar    1  UNL1        0.0000
      2 C          63.1597   89.6586   12.0157 C.ar    1  UNL1       -0.0002
      3 C          62.1611   88.6744   11.4824 C.ar    1  UNL1       -0.0017
      4 C          61.5309   88.8982   10.1398 C.ar    1  UNL1        0.0070
      5 C          61.8992   90.1063    9.3304 C.ar    1  UNL1       -0.0017
      6 C          62.8977   91.0904    9.8637 C.ar    1  UNL1       -0.0002
      7 C          66.0957   92.6538   13.6481 C.ar    1  UNL1        0.0503
      8 C          66.5235   93.8191   12.8061 C.ar    1  UNL1        0.0147
      9 C          65.9527   94.0002   11.4308 C.ar    1  UNL1        0.0013
     10 C          64.9542   93.0161   10.8975 C.ar    1  UNL1        0.0001
     11 C          64.5265   91.8508   11.7396 C.ar    1  UNL1        0.0012
     12 C          65.0972   91.6697   13.1149 C.ar    1  UNL1        0.0147
     13 C          68.7191   92.1516   16.5833 C.3     1  UNL1        0.0949
     14 C          68.1484   92.3327   15.2080 C.2     1  UNL1        0.2266
     15 O          69.0597   92.3739   14.0173 O.2     1  UNL1       -0.2748
     16 N          66.6664   92.4727   15.0234 N.am    1  UNL1       -0.2839
     17 H          66.0683   92.4457   15.8050 H       1  UNL1        0.1549
     18 C          60.5324   87.9141    9.6065 C.3     1  UNL1        0.1412
     19 C          59.5339   86.9299    9.0733 C.3     1  UNL1        0.0401
     20 O          59.6776   89.0459    9.1183 O.3     1  UNL1       -0.3771
     21 H          60.1021   89.8898    9.3382 H       1  UNL1        0.2112
     22 C          61.3871   86.7823   10.0948 C.ar    1  UNL1        0.0825
     23 C          62.4527   86.0789    9.3074 C.ar    1  UNL1        0.1157
     24 N          63.0506   85.0170   10.1822 N.ar    1  UNL1       -0.2228
     25 C          62.3545   85.0642   11.5101 C.ar    1  UNL1        0.1749
     26 N          61.3265   86.1552   11.4561 N.ar    1  UNL1       -0.3361
     27 H          60.7187   86.4142   12.1860 H       1  UNL1        0.1673
@<TRIPOS>BOND
     1    13    14    1
     2    14    15    2
     3    14    16   am
     4    16     7    1
     5     7     8   ar
     6     8     9   ar
     7     9    10   ar
     8    10    11   ar
     9    11     1    1
    10     1     2   ar
    11     2     3   ar
    12     3     4   ar
    13     4    18    1
    14    18    19    1
    15    18    20    1
    16    18    22    1
    17    22    23   ar
    18    23    24   ar
    19    24    25   ar
    20    25    26   ar
    21     4     5   ar
    22     5     6   ar
    23    11    12   ar
    24    12     7   ar
    25     6     1   ar
    26    26    22   ar
    27    16    17    1
    28    20    21    1
    29    26    27    1
@<TRIPOS>MOLECULE
*****
 27 29 0 0 0
SMALL
GASTEIGER

@<TRIPOS>ATOM
      1 C          64.0500   91.4504   11.4035 C.ar    1  UNL1        0.0000
      2 C          63.7793   90.3513   12.3878 C.ar    1  UNL1       -0.0002
      3 C          62.8629   89.2226   12.0184 C.ar    1  UNL1       -0.0017
      4 C          62.2173   89.1930   10.6648 C.ar    1  UNL1        0.0070
      5 C          62.4880   90.2921    9.6805 C.ar    1  UNL1       -0.0017
      6 C          63.4043   91.4207   10.0499 C.ar    1  UNL1       -0.0002
      7 C          66.5195   93.7432   13.4998 C.ar    1  UNL1        0.0503
      8 C          66.7989   94.8364   12.5116 C.ar    1  UNL1        0.0147
      9 C          66.1620   94.8010   11.1539 C.ar    1  UNL1        0.0013
     10 C          65.2457   93.6723   10.7846 C.ar    1  UNL1        0.0001
     11 C          64.9663   92.5791   11.7728 C.ar    1  UNL1        0.0012
     12 C          65.6032   92.6145   13.1305 C.ar    1  UNL1        0.0147
     13 C          69.0869   93.0940   16.4556 C.3     1  UNL1        0.0949
     14 C          68.4501   93.0586   15.0980 C.2     1  UNL1        0.2266
     15 O          69.1070   92.3032   13.9809 O.2     1  UNL1       -0.2748
     16 N          67.1564   93.7786   14.8575 N.am    1  UNL1       -0.2839
     17 H          66.7252   94.2744   15.5906 H       1  UNL1        0.1549
     18 C          61.3010   88.0643   10.2954 C.3     1  UNL1        0.1412
     19 C          60.3847   86.9356    9.9261 C.3     1  UNL1        0.0401
     20 O          62.4028   87.4305    9.4990 O.3     1  UNL1       -0.3771
     21 H          63.1989   87.9820    9.5526 H       1  UNL1        0.2112
     22 C          60.1992   88.6981   11.0918 C.ar    1  UNL1        0.0825
     23 C          59.6663   90.0883   10.9088 C.ar    1  UNL1        0.1157
     24 N          58.5746   90.3025   11.9151 N.ar    1  UNL1       -0.2228
     25 C          58.4328   89.0446   12.7199 C.ar    1  UNL1        0.1749
     26 N          59.4369   88.0531   12.2112 N.ar    1  UNL1       -0.3361
     27 H          59.5718   87.1394   12.5521 H       1  UNL1        0.1673
@<TRIPOS>BOND
     1    13    14    1
     2    14    15    2
     3    14    16   am
     4    16     7    1
     5     7     8   ar
     6     8     9   ar
     7     9    10   ar
     8    10    11   ar
     9    11     1    1
    10     1     2   ar
    11     2     3   ar
    12     3     4   ar
    13     4    18    1
    14    18    19    1
    15    18    20    1
    16    18    22    1
    17    22    23   ar
    18    23    24   ar
    19    24    25   ar
    20    25    26   ar
    21     4     5   ar
    22     5     6   ar
    23    11    12   ar
    24    12     7   ar
    25     6     1   ar
    26    26    22   ar
    27    16    17    1
    28    20    21    1
    29    26    27    1
@<TRIPOS>MOLECULE
*****
 27 29 0 0 0
SMALL
GASTEIGER

@<TRIPOS>ATOM
      1 C          63.5963   88.8056   12.9133 C.ar    1  UNL1        0.0000
      2 C          64.3458   88.5460   14.1864 C.ar    1  UNL1       -0.0002
      3 C          65.0823   89.6633   14.8642 C.ar    1  UNL1       -0.0017
      4 C          65.0692   91.0400   14.2689 C.ar    1  UNL1        0.0070
      5 C          64.3197   91.2995   12.9958 C.ar    1  UNL1       -0.0017
      6 C          63.5832   90.1823   12.3180 C.ar    1  UNL1       -0.0002
      7 C          61.0323   86.8794   10.5753 C.ar    1  UNL1        0.0503
      8 C          61.3868   85.4541   10.8797 C.ar    1  UNL1        0.0147
      9 C          62.4777   85.1459   11.8619 C.ar    1  UNL1        0.0013
     10 C          63.2142   86.2630   12.5398 C.ar    1  UNL1        0.0001
     11 C          62.8598   87.6884   12.2354 C.ar    1  UNL1        0.0012
     12 C          61.7688   87.9966   11.2531 C.ar    1  UNL1        0.0147
     13 C          58.9583   87.0141    7.1944 C.3     1  UNL1        0.0949
     14 C          60.0493   86.7058    8.1767 C.2     1  UNL1        0.2266
     15 O          61.2482   85.9158    7.7425 O.2     1  UNL1       -0.2748
     16 N          59.9413   87.1876    9.5930 N.am    1  UNL1       -0.2839
     17 H          59.1545   87.7062    9.8780 H       1  UNL1        0.1549
     18 C          65.8057   92.1572   14.9467 C.3     1  UNL1        0.1412
     19 C          66.5422   93.2744   15.6245 C.3     1  UNL1        0.0401
     20 O          64.7559   92.1998   16.0172 O.3     1  UNL1       -0.3771
     21 H          64.0805   91.5279   15.8347 H       1  UNL1        0.2112
     22 C          66.8555   92.1146   13.8762 C.ar    1  UNL1        0.0825
     23 C          66.7312   92.6886   12.4960 C.ar    1  UNL1        0.1157
     24 N          68.0129   92.4192   11.7647 N.ar    1  UNL1       -0.2228
     25 C          68.9295   91.6788   12.6931 C.ar    1  UNL1        0.1749
     26 N          68.2142   91.4905   13.9980 N.ar    1  UNL1       -0.3361
     27 H          68.5734   91.0370   14.7946 H       1  UNL1        0.1673
@<TRIPOS>BOND
     1    13    14    1
     2    14    15    2
     3    14    16   am
     4    16     7    1
     5     7     8   ar
     6     8     9   ar
     7     9    10   ar
     8    10    11   ar
     9    11     1    1
    10     1     2   ar
    11     2     3   ar
    12     3     4   ar
    13     4    18    1
    14    18    19    1
    15    18    20    1
    16    18    22    1
    17    22    23   ar
    18    23    24   ar
    19    24    25   ar
    20    25    26   ar
    21     4     5   ar
    22     5     6   ar
    23    11    12   ar
    24    12     7   ar
    25     6     1   ar
    26    26    22   ar
    27    16    17    1
    28    20    21    1
    29    26    27    1
@<TRIPOS>MOLECULE
*****
 27 29 0 0 0
SMALL
GASTEIGER

@<TRIPOS>ATOM
      1 C          63.6095   86.6279   14.7740 C.ar    1  UNL1        0.0000
      2 C          63.0763   86.1833   13.4444 C.ar    1  UNL1       -0.0002
      3 C          62.8924   84.7218   13.1608 C.ar    1  UNL1       -0.0017
      4 C          63.2416   83.7051   14.2068 C.ar    1  UNL1        0.0070
      5 C          63.7748   84.1498   15.5365 C.ar    1  UNL1       -0.0017
      6 C          63.9587   85.6111   15.8201 C.ar    1  UNL1       -0.0002
      7 C          64.6347   90.4353   14.3236 C.ar    1  UNL1        0.0503
      8 C          64.1614   91.0121   15.6249 C.ar    1  UNL1        0.0147
      9 C          63.5041   90.1276   16.6425 C.ar    1  UNL1        0.0013
     10 C          63.3202   88.6662   16.3589 C.ar    1  UNL1        0.0001
     11 C          63.7935   88.0894   15.0577 C.ar    1  UNL1        0.0012
     12 C          64.4507   88.9739   14.0401 C.ar    1  UNL1        0.0147
     13 C          65.2280   92.5532   11.0203 C.3     1  UNL1        0.0949
     14 C          64.5708   91.6687   12.0379 C.2     1  UNL1        0.2266
     15 O          63.1922   91.1330   11.7874 O.2     1  UNL1       -0.2748
     16 N          65.2920   91.3198   13.3060 N.am    1  UNL1       -0.2839
     17 H          66.1967   91.6714   13.4704 H       1  UNL1        0.1549
     18 C          63.0577   82.2437   13.9232 C.3     1  UNL1        0.1412
     19 C          62.8737   80.7823   13.6396 C.3     1  UNL1        0.0401
     20 O          62.5347   82.0396   15.3142 O.3     1  UNL1       -0.3771
     21 H          62.5341   82.8866   15.7869 H       1  UNL1        0.2112
     22 C          63.5806   82.4478   12.5323 C.ar    1  UNL1        0.0825
     23 C          64.9252   83.0046   12.1687 C.ar    1  UNL1        0.1157
     24 N          65.0264   83.0318   10.6723 N.ar    1  UNL1       -0.2228
     25 C          63.7444   82.4918   10.1111 C.ar    1  UNL1        0.1749
     26 N          62.8509   82.1309   11.2605 N.ar    1  UNL1       -0.3361
     27 H          61.9446   81.7524   11.1923 H       1  UNL1        0.1673
@<TRIPOS>BOND
     1    13    14    1
     2    14    15    2
     3    14    16   am
     4    16     7    1
     5     7     8   ar
     6     8     9   ar
     7     9    10   ar
     8    10    11   ar
     9    11     1    1
    10     1     2   ar
    11     2     3   ar
    12     3     4   ar
    13     4    18    1
    14    18    19    1
    15    18    20    1
    16    18    22    1
    17    22    23   ar
    18    23    24   ar
    19    24    25   ar
    20    25    26   ar
    21     4     5   ar
    22     5     6   ar
    23    11    12   ar
    24    12     7   ar
    25     6     1   ar
    26    26    22   ar
    27    16    17    1
    28    20    21    1
    29    26    27    1
