@<TRIPOS>MOLECULE
*****
 38 41 0 0 0
SMALL
GASTEIGER

@<TRIPOS>ATOM
      1 C          63.8761   86.1123   15.8935 C.3     1  UNL1        0.0758
      2 C          63.1614   86.8446   16.9902 C.3     1  UNL1        0.0370
      3 C          63.0422   88.3390   16.9403 C.3     1  UNL1        0.0741
      4 N          63.6377   89.1011   15.7937 N.3     1  UNL1       -0.2688
      5 C          64.3524   88.3687   14.6970 C.3     1  UNL1        0.0741
      6 C          64.4716   86.8743   14.7469 C.3     1  UNL1        0.0370
      7 O          62.3862   84.4217   13.9130 O.2     1  UNL1       -0.2528
      8 C          63.2503   83.7726   14.9530 C.2     1  UNL1        0.3010
      9 N          63.9953   84.6178   15.9433 N.am    1  UNL1       -0.2905
     10 N          63.3695   82.2781   15.0029 N.am    1  UNL1       -0.2844
     11 H          64.5625   84.1917   16.6259 H       1  UNL1        0.1509
     12 H          63.9367   81.8520   15.6855 H       1  UNL1        0.1513
     13 CA         62.6246   81.4329   14.0126 C.3     1  UNL1        0.1248
     14 C          63.0224   81.4457   12.5664 C.ar    1  UNL1       -0.0020
     15 C          63.8021   82.6016   12.0132 C.ar    1  UNL1       -0.0026
     16 C          64.1999   82.6144   10.5670 C.ar    1  UNL1       -0.0003
     17 C          63.8181   81.4713    9.6740 C.ar    1  UNL1       -0.0000
     18 C          63.0384   80.3154   10.2271 C.ar    1  UNL1       -0.0003
     19 C          62.6405   80.3026   11.6734 C.ar    1  UNL1       -0.0026
     20 C          61.4818   80.5748   14.4686 C.3     1  UNL1        0.1612
     21 O          60.0706   80.9806   14.1625 O.3     1  UNL1       -0.3799
     22 H          59.8590   81.7990   14.6383 H       1  UNL1        0.2105
     23 C          63.5185   90.5955   15.7439 C.3     1  UNL1        0.1007
     24 C          64.6079   91.4143   15.1172 C.ar    1  UNL1        0.0129
     25 C          65.8847   91.8384   15.7805 C.ar    1  UNL1        0.0176
     26 C          66.6777   92.6390   14.7905 C.ar    1  UNL1        0.0799
     27 N          65.8910   92.7097   13.5152 N.ar    1  UNL1       -0.3038
     28 C          64.6119   91.9528   13.7172 C.ar    1  UNL1        0.0772
     29 C          66.3100   93.4136   12.2587 C.ar    1  UNL1        0.0640
     30 C          66.8101   92.6222   11.0867 C.ar    1  UNL1        0.0175
     31 C          67.2290   93.3262    9.8302 C.ar    1  UNL1        0.0053
     32 C          67.1480   94.8215    9.7456 C.ar    1  UNL1        0.0715
     33 C          66.6479   95.6130   10.9176 C.ar    1  UNL1        0.0053
     34 C          66.2289   94.9090   12.1741 C.ar    1  UNL1        0.0175
     35 C          67.5669   95.5254    8.4891 C.3     1  UNL1        0.4186
     36 F          67.9859   96.2295    7.2326 F       1  UNL1       -0.1659
     37 F          67.6139   94.2108    7.7683 F       1  UNL1       -0.1659
     38 F          67.5200   96.8401    9.2099 F       1  UNL1       -0.1659
@<TRIPOS>BOND
     1     7     8    2
     2     8     9   am
     3     9     1    1
     4     1     2    1
     5     2     3    1
     6     3     4    1
     7     4    23    1
     8    23    24    1
     9    24    25   ar
    10    25    26   ar
    11    26    27   ar
    12    27    29    1
    13    29    30   ar
    14    30    31   ar
    15    31    32   ar
    16    32    35    1
    17    35    36    1
    18    35    37    1
    19    35    38    1
    20    32    33   ar
    21    33    34   ar
    22    27    28   ar
    23     4     5    1
    24     5     6    1
    25     8    10   am
    26    10    13    1
    27    13    20    1
    28    20    21    1
    29    13    14    1
    30    14    15   ar
    31    15    16   ar
    32    16    17   ar
    33    17    18   ar
    34    18    19   ar
    35     6     1    1
    36    19    14   ar
    37    28    24   ar
    38    34    29   ar
    39     9    11    1
    40    10    12    1
    41    21    22    1
@<TRIPOS>MOLECULE
*****
 38 41 0 0 0
SMALL
GASTEIGER

@<TRIPOS>ATOM
      1 C          61.7906   88.1834   10.2564 C.3     1  UNL1        0.0758
      2 C          61.1201   89.5209   10.1500 C.3     1  UNL1        0.0370
      3 C          60.1329   89.7795    9.0506 C.3     1  UNL1        0.0741
      4 N          59.8163   88.7006    8.0578 N.3     1  UNL1       -0.2688
      5 C          60.4868   87.3631    8.1642 C.3     1  UNL1        0.0741
      6 C          61.4740   87.1045    9.2636 C.3     1  UNL1        0.0370
      7 O          61.5694   85.6940   11.9160 O.2     1  UNL1       -0.2528
      8 C          62.6672   86.6800   12.1856 C.2     1  UNL1        0.3010
      9 N          62.7778   87.9247   11.3558 N.am    1  UNL1       -0.2905
     10 N          63.6544   86.4213   13.2849 N.am    1  UNL1       -0.2844
     11 H          63.4983   88.5718   11.5327 H       1  UNL1        0.1509
     12 H          64.3750   87.0685   13.4619 H       1  UNL1        0.1513
     13 CA         63.5439   85.1767   14.1147 C.3     1  UNL1        0.1248
     14 C          63.3725   83.8438   13.4483 C.ar    1  UNL1       -0.0020
     15 C          64.2101   83.4883   12.2558 C.ar    1  UNL1       -0.0026
     16 C          64.0388   82.1555   11.5894 C.ar    1  UNL1       -0.0003
     17 C          63.0298   81.1781   12.1154 C.ar    1  UNL1       -0.0000
     18 C          62.1922   81.5336   13.3079 C.ar    1  UNL1       -0.0003
     19 C          62.3635   82.8665   13.9744 C.ar    1  UNL1       -0.0026
     20 C          63.6046   85.2648   15.6109 C.3     1  UNL1        0.1612
     21 O          62.3546   85.5241   16.3983 O.3     1  UNL1       -0.3799
     22 H          62.0240   86.4135   16.1966 H       1  UNL1        0.2105
     23 C          58.8291   88.9593    6.9584 C.3     1  UNL1        0.1007
     24 C          59.0760   90.0629    5.9730 C.ar    1  UNL1        0.0129
     25 C          58.0872   91.1114    5.5573 C.ar    1  UNL1        0.0176
     26 C          58.7552   92.0082    4.5576 C.ar    1  UNL1        0.0799
     27 N          60.1570   91.5140    4.3554 N.ar    1  UNL1       -0.3038
     28 C          60.3552   90.3117    5.2301 C.ar    1  UNL1        0.0772
     29 C          61.1807   92.1163    3.4393 C.ar    1  UNL1        0.0640
     30 C          60.8100   93.2703    2.5558 C.ar    1  UNL1        0.0175
     31 C          61.8337   93.8726    1.6397 C.ar    1  UNL1        0.0053
     32 C          63.2281   93.3208    1.6071 C.ar    1  UNL1        0.0715
     33 C          63.5988   92.1667    2.4906 C.ar    1  UNL1        0.0053
     34 C          62.5751   91.5645    3.4067 C.ar    1  UNL1        0.0175
     35 C          64.2517   93.9231    0.6910 C.3     1  UNL1        0.4186
     36 F          65.2754   94.5255   -0.2252 F       1  UNL1       -0.1659
     37 F          65.0738   92.6722    0.7871 F       1  UNL1       -0.1659
     38 F          63.4297   95.1742    0.5948 F       1  UNL1       -0.1659
@<TRIPOS>BOND
     1     7     8    2
     2     8     9   am
     3     9     1    1
     4     1     2    1
     5     2     3    1
     6     3     4    1
     7     4    23    1
     8    23    24    1
     9    24    25   ar
    10    25    26   ar
    11    26    27   ar
    12    27    29    1
    13    29    30   ar
    14    30    31   ar
    15    31    32   ar
    16    32    35    1
    17    35    36    1
    18    35    37    1
    19    35    38    1
    20    32    33   ar
    21    33    34   ar
    22    27    28   ar
    23     4     5    1
    24     5     6    1
    25     8    10   am
    26    10    13    1
    27    13    20    1
    28    20    21    1
    29    13    14    1
    30    14    15   ar
    31    15    16   ar
    32    16    17   ar
    33    17    18   ar
    34    18    19   ar
    35     6     1    1
    36    19    14   ar
    37    28    24   ar
    38    34    29   ar
    39     9    11    1
    40    10    12    1
    41    21    22    1
@<TRIPOS>MOLECULE
*****
 38 41 0 0 0
SMALL
GASTEIGER

@<TRIPOS>ATOM
      1 C          59.5627   92.2994    4.0752 C.3     1  UNL1        0.0758
      2 C          58.1434   92.0005    4.4575 C.3     1  UNL1        0.0370
      3 C          57.8418   90.8706    5.3969 C.3     1  UNL1        0.0741
      4 N          58.9595   90.0397    5.9539 N.3     1  UNL1       -0.2688
      5 C          60.3788   90.3385    5.5715 C.3     1  UNL1        0.0741
      6 C          60.6804   91.4684    4.6322 C.3     1  UNL1        0.0370
      7 O          62.0761   92.2585    2.4378 O.2     1  UNL1       -0.2528
      8 C          61.1211   93.4088    2.3171 C.2     1  UNL1        0.3010
      9 N          59.8644   93.4293    3.1358 N.am    1  UNL1       -0.2905
     10 N          61.4227   94.5388    1.3778 N.am    1  UNL1       -0.2844
     11 H          59.2376   94.1843    3.0567 H       1  UNL1        0.1509
     12 H          60.7959   95.2938    1.2986 H       1  UNL1        0.1513
     13 CA         62.6794   94.5183    0.5591 C.3     1  UNL1        0.1248
     14 C          62.6199   94.1645   -0.8974 C.ar    1  UNL1       -0.0020
     15 C          63.8800   93.8335   -1.6409 C.ar    1  UNL1       -0.0026
     16 C          63.8206   93.4797   -3.0973 C.ar    1  UNL1       -0.0003
     17 C          62.5011   93.4569   -3.8103 C.ar    1  UNL1       -0.0000
     18 C          61.2410   93.7878   -3.0669 C.ar    1  UNL1       -0.0003
     19 C          61.3004   94.1417   -1.6104 C.ar    1  UNL1       -0.0026
     20 C          63.9955   94.8516    1.1968 C.3     1  UNL1        0.1612
     21 O          64.6782   93.8471    2.0770 O.3     1  UNL1       -0.3799
     22 H          64.1446   93.6996    2.8735 H       1  UNL1        0.2105
     23 C          58.6578   88.9097    6.8933 C.3     1  UNL1        0.1007
     24 C          59.6485   88.5316    7.9542 C.ar    1  UNL1        0.0129
     25 C          60.2515   89.4582    8.9679 C.ar    1  UNL1        0.0176
     26 C          61.1857   88.6598    9.8279 C.ar    1  UNL1        0.0799
     27 N          61.1602   87.2396    9.3457 N.ar    1  UNL1       -0.3038
     28 C          60.2101   87.1604    8.1877 C.ar    1  UNL1        0.0772
     29 C          61.9466   86.0990    9.9206 C.ar    1  UNL1        0.0640
     30 C          61.8604   85.7920   11.3862 C.ar    1  UNL1        0.0175
     31 C          62.6468   84.6514   11.9611 C.ar    1  UNL1        0.0053
     32 C          63.5194   83.8177   11.0703 C.ar    1  UNL1        0.0715
     33 C          63.6056   84.1247    9.6046 C.ar    1  UNL1        0.0053
     34 C          62.8192   85.2653    9.0297 C.ar    1  UNL1        0.0175
     35 C          64.3058   82.6771   11.6452 C.3     1  UNL1        0.4186
     36 F          65.0922   81.5364   12.2200 F       1  UNL1       -0.1659
     37 F          64.6692   83.5241   12.8286 F       1  UNL1       -0.1659
     38 F          63.9424   81.8300   10.4617 F       1  UNL1       -0.1659
@<TRIPOS>BOND
     1     7     8    2
     2     8     9   am
     3     9     1    1
     4     1     2    1
     5     2     3    1
     6     3     4    1
     7     4    23    1
     8    23    24    1
     9    24    25   ar
    10    25    26   ar
    11    26    27   ar
    12    27    29    1
    13    29    30   ar
    14    30    31   ar
    15    31    32   ar
    16    32    35    1
    17    35    36    1
    18    35    37    1
    19    35    38    1
    20    32    33   ar
    21    33    34   ar
    22    27    28   ar
    23     4     5    1
    24     5     6    1
    25     8    10   am
    26    10    13    1
    27    13    20    1
    28    20    21    1
    29    13    14    1
    30    14    15   ar
    31    15    16   ar
    32    16    17   ar
    33    17    18   ar
    34    18    19   ar
    35     6     1    1
    36    19    14   ar
    37    28    24   ar
    38    34    29   ar
    39     9    11    1
    40    10    12    1
    41    21    22    1
@<TRIPOS>MOLECULE
*****
 38 41 0 0 0
SMALL
GASTEIGER

@<TRIPOS>ATOM
      1 C          59.5320   92.4140    4.0990 C.3     1  UNL1        0.0758
      2 C          58.1160   92.0743    4.4590 C.3     1  UNL1        0.0370
      3 C          57.8293   90.9016    5.3493 C.3     1  UNL1        0.0741
      4 N          58.9585   90.0687    5.8795 N.3     1  UNL1       -0.2688
      5 C          60.3744   90.4084    5.5195 C.3     1  UNL1        0.0741
      6 C          60.6612   91.5810    4.6292 C.3     1  UNL1        0.0370
      7 O          59.5503   92.0661    1.1192 O.2     1  UNL1       -0.2528
      8 C          59.8279   93.4127    1.7188 C.2     1  UNL1        0.3010
      9 N          59.8188   93.5867    3.2086 N.am    1  UNL1       -0.2905
     10 N          60.1147   94.5854    0.8285 N.am    1  UNL1       -0.2844
     11 H          60.0010   94.4705    3.6021 H       1  UNL1        0.1509
     12 H          60.2970   95.4692    1.2220 H       1  UNL1        0.1513
     13 CA         60.1239   94.4114   -0.6613 C.3     1  UNL1        0.1248
     14 C          58.8541   94.0733   -1.3847 C.ar    1  UNL1       -0.0020
     15 C          57.5481   94.6400   -0.9123 C.ar    1  UNL1       -0.0026
     16 C          56.2783   94.3019   -1.6357 C.ar    1  UNL1       -0.0003
     17 C          56.3145   93.3970   -2.8314 C.ar    1  UNL1       -0.0000
     18 C          57.6204   92.8302   -3.3038 C.ar    1  UNL1       -0.0003
     19 C          58.8903   93.1684   -2.5805 C.ar    1  UNL1       -0.0026
     20 C          61.4028   94.5756   -1.4278 C.3     1  UNL1        0.1612
     21 O          62.3265   93.4071   -1.6046 O.3     1  UNL1       -0.3799
     22 H          62.6863   93.1460   -0.7424 H       1  UNL1        0.2105
     23 C          58.6717   88.8960    6.7699 C.3     1  UNL1        0.1007
     24 C          59.6345   88.5287    7.8598 C.ar    1  UNL1        0.0129
     25 C          60.1912   89.4603    8.8953 C.ar    1  UNL1        0.0176
     26 C          61.1104   88.6727    9.7812 C.ar    1  UNL1        0.0799
     27 N          61.1218   87.2543    9.2932 N.ar    1  UNL1       -0.3038
     28 C          60.2096   87.1653    8.1058 C.ar    1  UNL1        0.0772
     29 C          61.9073   86.1235    9.8883 C.ar    1  UNL1        0.0640
     30 C          61.8041   85.8289   11.3554 C.ar    1  UNL1        0.0175
     31 C          62.5897   84.6981   11.9504 C.ar    1  UNL1        0.0053
     32 C          63.4785   83.8619   11.0784 C.ar    1  UNL1        0.0715
     33 C          63.5817   84.1564    9.6112 C.ar    1  UNL1        0.0053
     34 C          62.7962   85.2872    9.0161 C.ar    1  UNL1        0.0175
     35 C          64.2641   82.7311   11.6734 C.3     1  UNL1        0.4186
     36 F          65.0497   81.6002   12.2684 F       1  UNL1       -0.1659
     37 F          64.5145   83.5522   12.9034 F       1  UNL1       -0.1659
     38 F          64.0137   81.9098   10.4433 F       1  UNL1       -0.1659
@<TRIPOS>BOND
     1     7     8    2
     2     8     9   am
     3     9     1    1
     4     1     2    1
     5     2     3    1
     6     3     4    1
     7     4    23    1
     8    23    24    1
     9    24    25   ar
    10    25    26   ar
    11    26    27   ar
    12    27    29    1
    13    29    30   ar
    14    30    31   ar
    15    31    32   ar
    16    32    35    1
    17    35    36    1
    18    35    37    1
    19    35    38    1
    20    32    33   ar
    21    33    34   ar
    22    27    28   ar
    23     4     5    1
    24     5     6    1
    25     8    10   am
    26    10    13    1
    27    13    20    1
    28    20    21    1
    29    13    14    1
    30    14    15   ar
    31    15    16   ar
    32    16    17   ar
    33    17    18   ar
    34    18    19   ar
    35     6     1    1
    36    19    14   ar
    37    28    24   ar
    38    34    29   ar
    39     9    11    1
    40    10    12    1
    41    21    22    1
@<TRIPOS>MOLECULE
*****
 38 41 0 0 0
SMALL
GASTEIGER

@<TRIPOS>ATOM
      1 C          59.7452   92.4943    4.0332 C.3     1  UNL1        0.0758
      2 C          60.8423   91.5884    4.5081 C.3     1  UNL1        0.0370
      3 C          60.5197   90.4170    5.3877 C.3     1  UNL1        0.0741
      4 N          59.1000   90.1515    5.7924 N.3     1  UNL1       -0.2688
      5 C          58.0028   91.0574    5.3175 C.3     1  UNL1        0.0741
      6 C          58.3254   92.2288    4.4379 C.3     1  UNL1        0.0370
      7 O          59.2620   92.3284    1.0770 O.2     1  UNL1       -0.2528
      8 C          59.8261   93.5828    1.6755 C.2     1  UNL1        0.3010
      9 N          60.0677   93.6658    3.1536 N.am    1  UNL1       -0.2905
     10 N          60.1487   94.7543    0.7959 N.am    1  UNL1       -0.2844
     11 H          60.4380   94.4891    3.5464 H       1  UNL1        0.1509
     12 H          60.5190   95.5776    1.1887 H       1  UNL1        0.1513
     13 CA         59.9071   94.6713   -0.6822 C.3     1  UNL1        0.1248
     14 C          61.0652   94.5264   -1.6244 C.ar    1  UNL1       -0.0020
     15 C          61.9389   93.3089   -1.5573 C.ar    1  UNL1       -0.0026
     16 C          63.0970   93.1640   -2.4995 C.ar    1  UNL1       -0.0003
     17 C          63.3815   94.2365   -3.5089 C.ar    1  UNL1       -0.0000
     18 C          62.5078   95.4539   -3.5760 C.ar    1  UNL1       -0.0003
     19 C          61.3497   95.5989   -2.6337 C.ar    1  UNL1       -0.0026
     20 C          58.5075   94.7332   -1.2181 C.3     1  UNL1        0.1612
     21 O          57.4807   95.5884   -0.5367 O.3     1  UNL1       -0.3799
     22 H          57.3002   95.2340    0.3480 H       1  UNL1        0.2105
     23 C          58.7774   88.9801    6.6720 C.3     1  UNL1        0.1007
     24 C          59.7091   88.5979    7.7837 C.ar    1  UNL1        0.0129
     25 C          60.2351   89.5149    8.8477 C.ar    1  UNL1        0.0176
     26 C          61.1295   88.7154    9.7481 C.ar    1  UNL1        0.0799
     27 N          61.1563   87.3041    9.2405 N.ar    1  UNL1       -0.3038
     28 C          60.2785   87.2315    8.0264 C.ar    1  UNL1        0.0772
     29 C          61.9259   86.1654    9.8415 C.ar    1  UNL1        0.0640
     30 C          61.8078   85.8714   11.3076 C.ar    1  UNL1        0.0175
     31 C          62.5773   84.7327   11.9086 C.ar    1  UNL1        0.0053
     32 C          63.4649   83.8880   11.0435 C.ar    1  UNL1        0.0715
     33 C          63.5831   84.1820    9.5773 C.ar    1  UNL1        0.0053
     34 C          62.8135   85.3207    8.9763 C.ar    1  UNL1        0.0175
     35 C          64.2345   82.7494   11.6445 C.3     1  UNL1        0.4186
     36 F          65.0040   81.6106   12.2454 F       1  UNL1       -0.1659
     37 F          64.5811   83.6069   12.8253 F       1  UNL1       -0.1659
     38 F          63.8878   81.8918   10.4635 F       1  UNL1       -0.1659
@<TRIPOS>BOND
     1     7     8    2
     2     8     9   am
     3     9     1    1
     4     1     2    1
     5     2     3    1
     6     3     4    1
     7     4    23    1
     8    23    24    1
     9    24    25   ar
    10    25    26   ar
    11    26    27   ar
    12    27    29    1
    13    29    30   ar
    14    30    31   ar
    15    31    32   ar
    16    32    35    1
    17    35    36    1
    18    35    37    1
    19    35    38    1
    20    32    33   ar
    21    33    34   ar
    22    27    28   ar
    23     4     5    1
    24     5     6    1
    25     8    10   am
    26    10    13    1
    27    13    20    1
    28    20    21    1
    29    13    14    1
    30    14    15   ar
    31    15    16   ar
    32    16    17   ar
    33    17    18   ar
    34    18    19   ar
    35     6     1    1
    36    19    14   ar
    37    28    24   ar
    38    34    29   ar
    39     9    11    1
    40    10    12    1
    41    21    22    1
@<TRIPOS>MOLECULE
*****
 38 41 0 0 0
SMALL
GASTEIGER

@<TRIPOS>ATOM
      1 C          62.1512   89.5627   11.0859 C.3     1  UNL1        0.0758
      2 C          60.9938   90.4861   10.8458 C.3     1  UNL1        0.0370
      3 C          60.0608   90.2364    9.6982 C.3     1  UNL1        0.0741
      4 N          60.2852   89.0633    8.7907 N.3     1  UNL1       -0.2688
      5 C          61.4426   88.1399    9.0308 C.3     1  UNL1        0.0741
      6 C          62.3756   88.3896   10.1784 C.3     1  UNL1        0.0370
      7 O          64.0492   91.8844   10.9984 O.2     1  UNL1       -0.2528
      8 C          64.0332   90.9732   12.1898 C.2     1  UNL1        0.3010
      9 N          63.0843   89.8123   12.2336 N.am    1  UNL1       -0.2905
     10 N          64.9663   91.2228   13.3375 N.am    1  UNL1       -0.2844
     11 H          63.0739   89.2143   13.0156 H       1  UNL1        0.1509
     12 H          64.9559   90.6248   14.1195 H       1  UNL1        0.1513
     13 CA         65.9153   92.3836   13.2938 C.3     1  UNL1        0.1248
     14 C          66.5530   92.7824   11.9960 C.ar    1  UNL1       -0.0020
     15 C          67.5113   91.8514   11.3140 C.ar    1  UNL1       -0.0026
     16 C          68.1491   92.2502   10.0162 C.ar    1  UNL1       -0.0003
     17 C          67.8286   93.5799    9.4005 C.ar    1  UNL1       -0.0000
     18 C          66.8705   94.5109   10.0825 C.ar    1  UNL1       -0.0003
     19 C          66.2326   94.1121   11.3803 C.ar    1  UNL1       -0.0026
     20 C          66.2264   93.1457   14.5477 C.3     1  UNL1        0.1612
     21 O          65.4289   92.8974   15.7937 O.3     1  UNL1       -0.3799
     22 H          64.5126   93.1830   15.6533 H       1  UNL1        0.2105
     23 C          59.3521   88.8136    7.6430 C.3     1  UNL1        0.1007
     24 C          59.2659   89.8018    6.5178 C.ar    1  UNL1        0.0129
     25 C          58.0121   90.4437    6.0022 C.ar    1  UNL1        0.0176
     26 C          58.3897   91.3602    4.8765 C.ar    1  UNL1        0.0799
     27 N          59.8769   91.2848    4.6962 N.ar    1  UNL1       -0.3038
     28 C          60.4185   90.3216    5.7107 C.ar    1  UNL1        0.0772
     29 C          60.6814   92.0399    3.6801 C.ar    1  UNL1        0.0640
     30 C          62.1241   91.6947    3.4586 C.ar    1  UNL1        0.0175
     31 C          62.9285   92.4498    2.4424 C.ar    1  UNL1        0.0053
     32 C          62.2902   93.5502    1.6477 C.ar    1  UNL1        0.0715
     33 C          60.8474   93.8954    1.8691 C.ar    1  UNL1        0.0053
     34 C          60.0430   93.1403    2.8853 C.ar    1  UNL1        0.0175
     35 C          63.0946   94.3053    0.6315 C.3     1  UNL1        0.4186
     36 F          63.8990   95.0605   -0.3847 F       1  UNL1       -0.1659
     37 F          64.0448   93.1495    0.5248 F       1  UNL1       -0.1659
     38 F          62.1444   95.4611    0.7381 F       1  UNL1       -0.1659
@<TRIPOS>BOND
     1     7     8    2
     2     8     9   am
     3     9     1    1
     4     1     2    1
     5     2     3    1
     6     3     4    1
     7     4    23    1
     8    23    24    1
     9    24    25   ar
    10    25    26   ar
    11    26    27   ar
    12    27    29    1
    13    29    30   ar
    14    30    31   ar
    15    31    32   ar
    16    32    35    1
    17    35    36    1
    18    35    37    1
    19    35    38    1
    20    32    33   ar
    21    33    34   ar
    22    27    28   ar
    23     4     5    1
    24     5     6    1
    25     8    10   am
    26    10    13    1
    27    13    20    1
    28    20    21    1
    29    13    14    1
    30    14    15   ar
    31    15    16   ar
    32    16    17   ar
    33    17    18   ar
    34    18    19   ar
    35     6     1    1
    36    19    14   ar
    37    28    24   ar
    38    34    29   ar
    39     9    11    1
    40    10    12    1
    41    21    22    1
@<TRIPOS>MOLECULE
*****
 38 41 0 0 0
SMALL
GASTEIGER

@<TRIPOS>ATOM
      1 C          60.3766   89.4176   11.1642 C.3     1  UNL1        0.0758
      2 C          60.1531   88.0275   10.6470 C.3     1  UNL1        0.0370
      3 C          59.7595   87.8142    9.2154 C.3     1  UNL1        0.0741
      4 N          59.5893   88.9911    8.3010 N.3     1  UNL1       -0.2688
      5 C          59.8128   90.3812    8.8183 C.3     1  UNL1        0.0741
      6 C          60.2064   90.5945   10.2499 C.3     1  UNL1        0.0370
      7 O          63.2638   89.2650   11.9648 O.2     1  UNL1       -0.2528
      8 C          62.2138   89.5547   12.9962 C.2     1  UNL1        0.3010
      9 N          60.7702   89.6310   12.5959 N.am    1  UNL1       -0.2905
     10 N          62.6075   89.7680   14.4278 N.am    1  UNL1       -0.2844
     11 H          60.0811   89.8211   13.2728 H       1  UNL1        0.1509
     12 H          61.9183   89.9581   15.1047 H       1  UNL1        0.1513
     13 CA         64.0510   89.6917   14.8281 C.3     1  UNL1        0.1248
     14 C          64.9131   90.9175   14.7631 C.ar    1  UNL1       -0.0020
     15 C          65.2427   91.6701   16.0181 C.ar    1  UNL1       -0.0026
     16 C          66.1048   92.8958   15.9531 C.ar    1  UNL1       -0.0003
     17 C          66.6373   93.3691   14.6331 C.ar    1  UNL1       -0.0000
     18 C          66.3077   92.6166   13.3781 C.ar    1  UNL1       -0.0003
     19 C          65.4456   91.3908   13.4430 C.ar    1  UNL1       -0.0026
     20 C          64.6325   88.3897   15.2934 C.3     1  UNL1        0.1612
     21 O          64.2630   87.1125   14.5990 O.3     1  UNL1       -0.3799
     22 H          63.3209   86.9290   14.7395 H       1  UNL1        0.2105
     23 C          59.1957   88.7777    6.8694 C.3     1  UNL1        0.1007
     24 C          59.1932   89.9325    5.9121 C.ar    1  UNL1        0.0129
     25 C          58.0153   90.7998    5.5799 C.ar    1  UNL1        0.0176
     26 C          58.4623   91.8261    4.5815 C.ar    1  UNL1        0.0799
     27 N          59.9166   91.5932    4.2967 N.ar    1  UNL1       -0.3038
     28 C          60.3682   90.4229    5.1191 C.ar    1  UNL1        0.0772
     29 C          60.7693   92.3905    3.3549 C.ar    1  UNL1        0.0640
     30 C          62.2011   92.0044    3.1299 C.ar    1  UNL1        0.0175
     31 C          63.0539   92.8018    2.1881 C.ar    1  UNL1        0.0053
     32 C          62.4748   93.9852    1.4712 C.ar    1  UNL1        0.0715
     33 C          61.0429   94.3714    1.6961 C.ar    1  UNL1        0.0053
     34 C          60.1902   93.5740    2.6380 C.ar    1  UNL1        0.0175
     35 C          63.3276   94.7826    0.5294 C.3     1  UNL1        0.4186
     36 F          64.1803   95.5800   -0.4124 F       1  UNL1       -0.1659
     37 F          63.2163   93.6921   -0.4945 F       1  UNL1       -0.1659
     38 F          63.4388   95.8731    1.5534 F       1  UNL1       -0.1659
@<TRIPOS>BOND
     1     7     8    2
     2     8     9   am
     3     9     1    1
     4     1     2    1
     5     2     3    1
     6     3     4    1
     7     4    23    1
     8    23    24    1
     9    24    25   ar
    10    25    26   ar
    11    26    27   ar
    12    27    29    1
    13    29    30   ar
    14    30    31   ar
    15    31    32   ar
    16    32    35    1
    17    35    36    1
    18    35    37    1
    19    35    38    1
    20    32    33   ar
    21    33    34   ar
    22    27    28   ar
    23     4     5    1
    24     5     6    1
    25     8    10   am
    26    10    13    1
    27    13    20    1
    28    20    21    1
    29    13    14    1
    30    14    15   ar
    31    15    16   ar
    32    16    17   ar
    33    17    18   ar
    34    18    19   ar
    35     6     1    1
    36    19    14   ar
    37    28    24   ar
    38    34    29   ar
    39     9    11    1
    40    10    12    1
    41    21    22    1
@<TRIPOS>MOLECULE
*****
 38 41 0 0 0
SMALL
GASTEIGER

@<TRIPOS>ATOM
      1 C          60.6822   92.5494    3.3795 C.3     1  UNL1        0.0758
      2 C          61.5580   91.5980    4.1396 C.3     1  UNL1        0.0370
      3 C          60.9503   90.6401    5.1209 C.3     1  UNL1        0.0741
      4 N          59.4667   90.6336    5.3421 N.3     1  UNL1       -0.2688
      5 C          58.5909   91.5851    4.5821 C.3     1  UNL1        0.0741
      6 C          59.1987   92.5430    3.6008 C.3     1  UNL1        0.0370
      7 O          60.0714   92.2888    0.4539 O.2     1  UNL1       -0.2528
      8 C          60.9846   93.3771    0.9354 C.2     1  UNL1        0.3010
      9 N          61.2900   93.5074    2.3982 N.am    1  UNL1       -0.2905
     10 N          61.5924   94.3350   -0.0459 N.am    1  UNL1       -0.2844
     11 H          61.8893   94.2217    2.7142 H       1  UNL1        0.1509
     12 H          62.1917   95.0493    0.2701 H       1  UNL1        0.1513
     13 CA         61.2870   94.2047   -1.5087 C.3     1  UNL1        0.1248
     14 C          62.4052   94.0682   -2.4990 C.ar    1  UNL1       -0.0020
     15 C          62.9826   95.2894   -3.1513 C.ar    1  UNL1       -0.0026
     16 C          64.1009   95.1529   -4.1417 C.ar    1  UNL1       -0.0003
     17 C          64.6418   93.7953   -4.4798 C.ar    1  UNL1       -0.0000
     18 C          64.0644   92.5742   -3.8276 C.ar    1  UNL1       -0.0003
     19 C          62.9461   92.7106   -2.8372 C.ar    1  UNL1       -0.0026
     20 C          59.8633   94.2108   -1.9811 C.3     1  UNL1        0.1612
     21 O          59.5586   94.1013   -3.4457 O.3     1  UNL1       -0.3799
     22 H          59.8850   94.8916   -3.9038 H       1  UNL1        0.2105
     23 C          58.8589   89.6757    6.3235 C.3     1  UNL1        0.1007
     24 C          59.6576   89.2008    7.5010 C.ar    1  UNL1        0.0129
     25 C          60.0323   90.0200    8.7004 C.ar    1  UNL1        0.0176
     26 C          60.8281   89.1489    9.6265 C.ar    1  UNL1        0.0799
     27 N          60.9453   87.7912    8.9995 N.ar    1  UNL1       -0.3038
     28 C          60.2219   87.8233    7.6859 C.ar    1  UNL1        0.0772
     29 C          61.6604   86.6090    9.5836 C.ar    1  UNL1        0.0640
     30 C          61.5121   86.2878   11.0412 C.ar    1  UNL1        0.0175
     31 C          62.2271   85.1057   11.6253 C.ar    1  UNL1        0.0053
     32 C          63.0905   84.2447   10.7517 C.ar    1  UNL1        0.0715
     33 C          63.2389   84.5658    9.2941 C.ar    1  UNL1        0.0053
     34 C          62.5238   85.7480    8.7100 C.ar    1  UNL1        0.0175
     35 C          63.8055   83.0625   11.3358 C.3     1  UNL1        0.4186
     36 F          64.5207   81.8804   11.9199 F       1  UNL1       -0.1659
     37 F          62.6799   82.8613   12.3066 F       1  UNL1       -0.1659
     38 F          64.9312   83.2637   10.3650 F       1  UNL1       -0.1659
@<TRIPOS>BOND
     1     7     8    2
     2     8     9   am
     3     9     1    1
     4     1     2    1
     5     2     3    1
     6     3     4    1
     7     4    23    1
     8    23    24    1
     9    24    25   ar
    10    25    26   ar
    11    26    27   ar
    12    27    29    1
    13    29    30   ar
    14    30    31   ar
    15    31    32   ar
    16    32    35    1
    17    35    36    1
    18    35    37    1
    19    35    38    1
    20    32    33   ar
    21    33    34   ar
    22    27    28   ar
    23     4     5    1
    24     5     6    1
    25     8    10   am
    26    10    13    1
    27    13    20    1
    28    20    21    1
    29    13    14    1
    30    14    15   ar
    31    15    16   ar
    32    16    17   ar
    33    17    18   ar
    34    18    19   ar
    35     6     1    1
    36    19    14   ar
    37    28    24   ar
    38    34    29   ar
    39     9    11    1
    40    10    12    1
    41    21    22    1
@<TRIPOS>MOLECULE
*****
 38 41 0 0 0
SMALL
GASTEIGER

@<TRIPOS>ATOM
      1 C          61.8340   89.5436   10.8162 C.3     1  UNL1        0.0758
      2 C          60.7032   90.4993   10.5760 C.3     1  UNL1        0.0370
      3 C          59.7793   90.2908    9.4128 C.3     1  UNL1        0.0741
      4 N          59.9863   89.1266    8.4899 N.3     1  UNL1       -0.2688
      5 C          61.1172   88.1709    8.7301 C.3     1  UNL1        0.0741
      6 C          62.0410   88.3794    9.8932 C.3     1  UNL1        0.0370
      7 O          64.0350   91.5744   10.6385 O.2     1  UNL1       -0.2528
      8 C          63.8584   90.7674   11.8905 C.2     1  UNL1        0.3010
      9 N          62.7579   89.7520   11.9794 N.am    1  UNL1       -0.2905
     10 N          64.7823   90.9758   13.0537 N.am    1  UNL1       -0.2844
     11 H          62.6420   89.2224   12.8012 H       1  UNL1        0.1509
     12 H          64.6664   90.4462   13.8755 H       1  UNL1        0.1513
     13 CA         65.8828   91.9912   12.9649 C.3     1  UNL1        0.1248
     14 C          66.7950   92.2128   14.1347 C.ar    1  UNL1       -0.0020
     15 C          68.2820   92.1411   13.9505 C.ar    1  UNL1       -0.0026
     16 C          69.1942   92.3627   15.1204 C.ar    1  UNL1       -0.0003
     17 C          68.6196   92.6560   16.4745 C.ar    1  UNL1       -0.0000
     18 C          67.1327   92.7276   16.6588 C.ar    1  UNL1       -0.0003
     19 C          66.2204   92.5061   15.4889 C.ar    1  UNL1       -0.0026
     20 C          66.0710   92.7850   11.7061 C.3     1  UNL1        0.1612
     21 O          65.4354   94.1368   11.5698 O.3     1  UNL1       -0.3799
     22 H          64.4702   94.0405   11.5582 H       1  UNL1        0.2105
     23 C          59.0624   88.9182    7.3267 C.3     1  UNL1        0.1007
     24 C          59.0044   89.9330    6.2237 C.ar    1  UNL1        0.0129
     25 C          57.7649   90.5957    5.6996 C.ar    1  UNL1        0.0176
     26 C          58.1701   91.5356    4.6031 C.ar    1  UNL1        0.0799
     27 N          59.6601   91.4540    4.4496 N.ar    1  UNL1       -0.3038
     28 C          60.1756   90.4635    5.4511 C.ar    1  UNL1        0.0772
     29 C          60.4889   92.2270    3.4670 C.ar    1  UNL1        0.0640
     30 C          59.8595   93.3125    2.6451 C.ar    1  UNL1        0.0175
     31 C          60.6882   94.0855    1.6626 C.ar    1  UNL1        0.0053
     32 C          62.1464   93.7731    1.5018 C.ar    1  UNL1        0.0715
     33 C          62.7759   92.6876    2.3237 C.ar    1  UNL1        0.0053
     34 C          61.9472   91.9146    3.3062 C.ar    1  UNL1        0.0175
     35 C          62.9752   94.5462    0.5193 C.3     1  UNL1        0.4186
     36 F          63.8040   95.3193   -0.4634 F       1  UNL1       -0.1659
     37 F          64.0463   93.4991    0.5990 F       1  UNL1       -0.1659
     38 F          61.9040   95.5933    0.4395 F       1  UNL1       -0.1659
@<TRIPOS>BOND
     1     7     8    2
     2     8     9   am
     3     9     1    1
     4     1     2    1
     5     2     3    1
     6     3     4    1
     7     4    23    1
     8    23    24    1
     9    24    25   ar
    10    25    26   ar
    11    26    27   ar
    12    27    29    1
    13    29    30   ar
    14    30    31   ar
    15    31    32   ar
    16    32    35    1
    17    35    36    1
    18    35    37    1
    19    35    38    1
    20    32    33   ar
    21    33    34   ar
    22    27    28   ar
    23     4     5    1
    24     5     6    1
    25     8    10   am
    26    10    13    1
    27    13    20    1
    28    20    21    1
    29    13    14    1
    30    14    15   ar
    31    15    16   ar
    32    16    17   ar
    33    17    18   ar
    34    18    19   ar
    35     6     1    1
    36    19    14   ar
    37    28    24   ar
    38    34    29   ar
    39     9    11    1
    40    10    12    1
    41    21    22    1
