@<TRIPOS>MOLECULE
*****
 32 37 0 0 0
SMALL
GASTEIGER

@<TRIPOS>ATOM
      1 C          59.1255   90.6009    5.5623 C.ar    1  UNL1        0.1383
      2 C          58.3994   91.7533    4.9340 C.ar    1  UNL1        0.0400
      3 C          59.0964   92.6201    3.9277 C.ar    1  UNL1        0.0397
      4 C          60.5196   92.3344    3.5495 C.ar    1  UNL1        0.1344
      5 C          61.2457   91.1820    4.1777 C.ar    1  UNL1        0.0149
      6 C          60.5486   90.3152    5.1841 C.ar    1  UNL1        0.0356
      7 C          62.6689   90.8963    3.7996 C.3     1  UNL1        0.0331
      8 C          63.3660   91.7630    2.7931 C.3     1  UNL1        0.0449
      9 C          62.6399   92.9155    2.1649 C.3     1  UNL1        0.1361
     10 C          64.0630   92.6298    1.7868 C.3     1  UNL1        0.0574
     11 C          64.7601   93.4965    0.7804 C.3     1  UNL1        0.0756
     12 N          64.0340   94.6490    0.1522 N.3     1  UNL1       -0.2737
     13 C          62.6108   94.9347    0.5303 C.3     1  UNL1        0.0756
     14 C          61.9138   94.0679    1.5367 C.3     1  UNL1        0.0574
     15 O          61.2167   93.2012    2.5431 O.3     1  UNL1       -0.4828
     16 C          64.7311   95.5158   -0.8542 C.3     1  UNL1        0.0575
     17 C          64.6695   95.6700   -2.3450 C.3     1  UNL1        0.0160
     18 C          65.7170   96.7416   -2.2774 C.3     1  UNL1        0.0028
     19 C          65.7786   96.5873   -0.7867 C.3     1  UNL1        0.0160
     20 O          58.4284   89.7341    6.5686 O.3     1  UNL1       -0.4791
     21 N          60.8273   87.0766    9.2949 N.3     1  UNL1       -0.1592
     22 C          60.9045   88.5673    9.4422 C.3     1  UNL1        0.0991
     23 C          60.1049   89.4532    8.5335 C.3     1  UNL1        0.0627
     24 C          59.2281   88.8483    7.4774 C.3     1  UNL1        0.1688
     25 C          59.1509   87.3575    7.3302 C.3     1  UNL1        0.0627
     26 C          59.9505   86.4717    8.2389 C.3     1  UNL1        0.0991
     27 O          60.8842   86.7349   11.3878 O.2     1  UNL1       -0.1573
     28 S          61.6270   86.1907   10.2037 S.O2    1  UNL1        0.0421
     29 O          62.3697   85.6465    9.0197 O.2     1  UNL1       -0.1573
     30 C          62.4266   85.3049   11.1125 C.3     1  UNL1        0.1459
     31 C          63.1140   83.9984   11.3783 C.3     1  UNL1        0.0270
     32 C          63.1242   85.0770   12.4206 C.3     1  UNL1        0.0270
@<TRIPOS>BOND
     1    27    28    2
     2    28    29    2
     3    28    30    1
     4    30    31    1
     5    31    32    1
     6    28    21    1
     7    21    22    1
     8    22    23    1
     9    23    24    1
    10    24    20    1
    11    20     1    1
    12     1     2   ar
    13     2     3   ar
    14     3     4   ar
    15     4     5   ar
    16     5     6   ar
    17     5     7    1
    18     7     8    1
    19     8     9    1
    20     9    10    1
    21    10    11    1
    22    11    12    1
    23    12    16    1
    24    16    17    1
    25    17    18    1
    26    18    19    1
    27    12    13    1
    28    13    14    1
    29     9    15    1
    30    24    25    1
    31    25    26    1
    32    32    30    1
    33    26    21    1
    34     6     1   ar
    35    14     9    1
    36    15     4    1
    37    19    16    1
@<TRIPOS>MOLECULE
*****
 32 37 0 0 0
SMALL
GASTEIGER

@<TRIPOS>ATOM
      1 C          59.2375   89.6467    6.8543 C.ar    1  UNL1        0.1383
      2 C          58.8994   88.1862    6.8033 C.ar    1  UNL1        0.0400
      3 C          59.4850   87.2450    7.8139 C.ar    1  UNL1        0.0397
      4 C          60.4088   87.7644    8.8755 C.ar    1  UNL1        0.1344
      5 C          60.7469   89.2249    8.9265 C.ar    1  UNL1        0.0149
      6 C          60.1612   90.1660    7.9159 C.ar    1  UNL1        0.0356
      7 C          61.6706   89.7442    9.9881 C.3     1  UNL1        0.0331
      8 C          62.2563   88.8031   10.9987 C.3     1  UNL1        0.0449
      9 C          61.9182   87.3425   10.9477 C.3     1  UNL1        0.1361
     10 C          62.8419   87.8619   12.0093 C.3     1  UNL1        0.0574
     11 C          63.4275   86.9208   13.0198 C.3     1  UNL1        0.0756
     12 N          63.0894   85.4603   12.9688 N.3     1  UNL1       -0.2737
     13 C          62.1656   84.9409   11.9072 C.3     1  UNL1        0.0756
     14 C          61.5800   85.8820   10.8967 C.3     1  UNL1        0.0574
     15 O          60.9944   86.8232    9.8861 O.3     1  UNL1       -0.4828
     16 C          63.6750   84.5191   13.9794 C.3     1  UNL1        0.0575
     17 C          65.0362   84.3165   14.5763 C.3     1  UNL1        0.0160
     18 C          64.5032   83.1881   15.4086 C.3     1  UNL1        0.0028
     19 C          63.1421   83.3907   14.8117 C.3     1  UNL1        0.0160
     20 O          58.6519   90.5878    5.8438 O.3     1  UNL1       -0.4791
     21 N          61.3176   92.5808    2.8152 N.3     1  UNL1       -0.1592
     22 C          61.8730   91.5234    3.7227 C.3     1  UNL1        0.0991
     23 C          60.9845   90.8591    4.7322 C.3     1  UNL1        0.0627
     24 C          59.5405   91.2521    4.8342 C.3     1  UNL1        0.1688
     25 C          58.9851   92.3095    3.9267 C.3     1  UNL1        0.0627
     26 C          59.8736   92.9738    2.9172 C.3     1  UNL1        0.0991
     27 O          61.0078   93.5688    0.9637 O.2     1  UNL1       -0.1573
     28 S          62.2062   93.2451    1.8057 S.O2    1  UNL1        0.0421
     29 O          63.4047   92.9214    2.6476 O.2     1  UNL1       -0.1573
     30 C          63.0948   93.9093    0.7962 C.3     1  UNL1        0.1459
     31 C          63.7223   95.1510    0.2354 C.3     1  UNL1        0.0270
     32 C          64.0066   93.8183   -0.3914 C.3     1  UNL1        0.0270
@<TRIPOS>BOND
     1    27    28    2
     2    28    29    2
     3    28    30    1
     4    30    31    1
     5    31    32    1
     6    28    21    1
     7    21    22    1
     8    22    23    1
     9    23    24    1
    10    24    20    1
    11    20     1    1
    12     1     2   ar
    13     2     3   ar
    14     3     4   ar
    15     4     5   ar
    16     5     6   ar
    17     5     7    1
    18     7     8    1
    19     8     9    1
    20     9    10    1
    21    10    11    1
    22    11    12    1
    23    12    16    1
    24    16    17    1
    25    17    18    1
    26    18    19    1
    27    12    13    1
    28    13    14    1
    29     9    15    1
    30    24    25    1
    31    25    26    1
    32    32    30    1
    33    26    21    1
    34     6     1   ar
    35    14     9    1
    36    15     4    1
    37    19    16    1
@<TRIPOS>MOLECULE
*****
 32 37 0 0 0
SMALL
GASTEIGER

@<TRIPOS>ATOM
      1 C          64.1151   89.2058   14.2879 C.ar    1  UNL1        0.1383
      2 C          64.6092   88.1721   15.2561 C.ar    1  UNL1        0.0400
      3 C          64.4986   86.7148   14.9186 C.ar    1  UNL1        0.0397
      4 C          63.8939   86.2911   13.6128 C.ar    1  UNL1        0.1344
      5 C          63.3998   87.3247   12.6446 C.ar    1  UNL1        0.0149
      6 C          63.5104   88.7821   12.9822 C.ar    1  UNL1        0.0356
      7 C          62.7952   86.9011   11.3390 C.3     1  UNL1        0.0331
      8 C          62.6846   85.4437   11.0014 C.3     1  UNL1        0.0449
      9 C          63.1787   84.4100   11.9696 C.3     1  UNL1        0.1361
     10 C          62.5740   83.9864   10.6639 C.3     1  UNL1        0.0574
     11 C          62.4635   82.5290   10.3265 C.3     1  UNL1        0.0756
     12 N          62.9576   81.4954   11.2947 N.3     1  UNL1       -0.2737
     13 C          63.5622   81.9190   12.6004 C.3     1  UNL1        0.0756
     14 C          63.6728   83.3764   12.9378 C.3     1  UNL1        0.0574
     15 O          63.7834   84.8338   13.2754 O.3     1  UNL1       -0.4828
     16 C          62.8470   80.0380   10.9571 C.3     1  UNL1        0.0575
     17 C          62.8825   79.2372    9.6893 C.3     1  UNL1        0.0160
     18 C          62.6906   77.9770   10.4799 C.3     1  UNL1        0.0028
     19 C          62.6551   78.7778   11.7477 C.3     1  UNL1        0.0160
     20 O          64.2256   90.6631   14.6253 O.3     1  UNL1       -0.4791
     21 N          65.9135   93.5486   11.6129 N.3     1  UNL1       -0.1592
     22 C          64.8470   92.5762   11.2042 C.3     1  UNL1        0.0991
     23 C          64.2844   91.6144   12.2084 C.3     1  UNL1        0.0627
     24 C          64.7882   91.6250   13.6211 C.3     1  UNL1        0.1688
     25 C          65.8547   92.5974   14.0298 C.3     1  UNL1        0.0627
     26 C          66.4173   93.5592   13.0256 C.3     1  UNL1        0.0991
     27 O          65.3120   95.4287   10.8359 O.2     1  UNL1       -0.1573
     28 S          66.4761   94.5105   10.6086 S.O2    1  UNL1        0.0421
     29 O          67.6402   93.5922   10.3814 O.2     1  UNL1       -0.1573
     30 C          67.0387   95.4722    9.6045 C.3     1  UNL1        0.1459
     31 C          67.5079   96.8517    9.2482 C.3     1  UNL1        0.0270
     32 C          67.5440   95.7587    8.2215 C.3     1  UNL1        0.0270
@<TRIPOS>BOND
     1    27    28    2
     2    28    29    2
     3    28    30    1
     4    30    31    1
     5    31    32    1
     6    28    21    1
     7    21    22    1
     8    22    23    1
     9    23    24    1
    10    24    20    1
    11    20     1    1
    12     1     2   ar
    13     2     3   ar
    14     3     4   ar
    15     4     5   ar
    16     5     6   ar
    17     5     7    1
    18     7     8    1
    19     8     9    1
    20     9    10    1
    21    10    11    1
    22    11    12    1
    23    12    16    1
    24    16    17    1
    25    17    18    1
    26    18    19    1
    27    12    13    1
    28    13    14    1
    29     9    15    1
    30    24    25    1
    31    25    26    1
    32    32    30    1
    33    26    21    1
    34     6     1   ar
    35    14     9    1
    36    15     4    1
    37    19    16    1
@<TRIPOS>MOLECULE
*****
 32 37 0 0 0
SMALL
GASTEIGER

@<TRIPOS>ATOM
      1 C          59.8131   90.9192    5.1616 C.ar    1  UNL1        0.1383
      2 C          61.2714   90.5789    5.0744 C.ar    1  UNL1        0.0400
      3 C          62.1299   91.2205    4.0250 C.ar    1  UNL1        0.0397
      4 C          61.5301   92.2024    3.0626 C.ar    1  UNL1        0.1344
      5 C          60.0718   92.5427    3.1498 C.ar    1  UNL1        0.0149
      6 C          59.2133   91.9011    4.1993 C.ar    1  UNL1        0.0356
      7 C          59.4720   93.5246    2.1875 C.3     1  UNL1        0.0331
      8 C          60.3304   94.1663    1.1380 C.3     1  UNL1        0.0449
      9 C          61.7887   93.8260    1.0509 C.3     1  UNL1        0.1361
     10 C          61.1889   94.8079    0.0886 C.3     1  UNL1        0.0574
     11 C          62.0474   95.4495   -0.9608 C.3     1  UNL1        0.0756
     12 N          63.5056   95.1092   -1.0480 N.3     1  UNL1       -0.2737
     13 C          64.1055   94.1273   -0.0857 C.3     1  UNL1        0.0756
     14 C          63.2470   93.4857    0.9637 C.3     1  UNL1        0.0574
     15 O          62.3885   92.8441    2.0132 O.3     1  UNL1       -0.4828
     16 C          64.3641   95.7509   -2.0975 C.3     1  UNL1        0.0575
     17 C          64.3549   95.7904   -3.5969 C.3     1  UNL1        0.0160
     18 C          65.5782   96.6583   -3.5816 C.3     1  UNL1        0.0028
     19 C          65.5874   96.6188   -2.0821 C.3     1  UNL1        0.0160
     20 O          58.9547   90.2776    6.2110 O.3     1  UNL1       -0.4791
     21 N          60.7805   87.4325    9.1812 N.3     1  UNL1       -0.1592
     22 C          60.0712   86.9005    7.9713 C.3     1  UNL1        0.0991
     23 C          59.4626   87.8488    6.9813 C.3     1  UNL1        0.0627
     24 C          59.5633   89.3292    7.2011 C.3     1  UNL1        0.1688
     25 C          60.2727   89.8612    8.4109 C.3     1  UNL1        0.0627
     26 C          60.8813   88.9129    9.4010 C.3     1  UNL1        0.0991
     27 O          62.1913   85.8519    9.0727 O.2     1  UNL1       -0.1573
     28 S          61.3892   86.4841   10.1712 S.O2    1  UNL1        0.0421
     29 O          60.5871   87.1163   11.2698 O.2     1  UNL1       -0.1573
     30 C          61.9977   85.5358   11.1613 C.3     1  UNL1        0.1459
     31 C          62.4182   84.1468   11.5404 C.3     1  UNL1        0.0270
     32 C          62.6313   85.2822   12.4970 C.3     1  UNL1        0.0270
@<TRIPOS>BOND
     1    27    28    2
     2    28    29    2
     3    28    30    1
     4    30    31    1
     5    31    32    1
     6    28    21    1
     7    21    22    1
     8    22    23    1
     9    23    24    1
    10    24    20    1
    11    20     1    1
    12     1     2   ar
    13     2     3   ar
    14     3     4   ar
    15     4     5   ar
    16     5     6   ar
    17     5     7    1
    18     7     8    1
    19     8     9    1
    20     9    10    1
    21    10    11    1
    22    11    12    1
    23    12    16    1
    24    16    17    1
    25    17    18    1
    26    18    19    1
    27    12    13    1
    28    13    14    1
    29     9    15    1
    30    24    25    1
    31    25    26    1
    32    32    30    1
    33    26    21    1
    34     6     1   ar
    35    14     9    1
    36    15     4    1
    37    19    16    1
@<TRIPOS>MOLECULE
*****
 32 37 0 0 0
SMALL
GASTEIGER

@<TRIPOS>ATOM
      1 C          59.3078   89.9865    6.4237 C.ar    1  UNL1        0.1383
      2 C          58.0990   90.7011    5.8964 C.ar    1  UNL1        0.0400
      3 C          58.2205   91.5985    4.7006 C.ar    1  UNL1        0.0397
      4 C          59.5509   91.7812    4.0321 C.ar    1  UNL1        0.1344
      5 C          60.7597   91.0666    4.5595 C.ar    1  UNL1        0.0149
      6 C          60.6381   90.1692    5.7553 C.ar    1  UNL1        0.0356
      7 C          62.0900   91.2493    3.8910 C.3     1  UNL1        0.0331
      8 C          62.2116   92.1467    2.6952 C.3     1  UNL1        0.0449
      9 C          61.0028   92.8613    2.1678 C.3     1  UNL1        0.1361
     10 C          62.3331   93.0440    1.4994 C.3     1  UNL1        0.0574
     11 C          62.4546   93.9413    0.3036 C.3     1  UNL1        0.0756
     12 N          61.2458   94.6559   -0.2238 N.3     1  UNL1       -0.2737
     13 C          59.9155   94.4732    0.4446 C.3     1  UNL1        0.0756
     14 C          59.7940   93.5759    1.6404 C.3     1  UNL1        0.0574
     15 O          59.6724   92.6785    2.8363 O.3     1  UNL1       -0.4828
     16 C          61.3674   95.5533   -1.4197 C.3     1  UNL1        0.0575
     17 C          62.4856   96.3203   -2.0610 C.3     1  UNL1        0.0160
     18 C          61.5392   96.8223   -3.1109 C.3     1  UNL1        0.0028
     19 C          60.4210   96.0554   -2.4696 C.3     1  UNL1        0.0160
     20 O          59.1863   89.0892    7.6196 O.3     1  UNL1       -0.4791
     21 N          62.0551   89.5233   11.0592 N.3     1  UNL1       -0.1592
     22 C          60.8769   90.4446   10.9444 C.3     1  UNL1        0.0991
     23 C          59.9207   90.2999    9.7979 C.3     1  UNL1        0.0627
     24 C          60.1426   89.2339    8.7662 C.3     1  UNL1        0.1688
     25 C          61.3208   88.3127    8.8810 C.3     1  UNL1        0.0627
     26 C          62.2770   88.4574   10.0275 C.3     1  UNL1        0.0991
     27 O          63.5157   90.9549   11.6229 O.2     1  UNL1       -0.1573
     28 S          63.0114   89.6681   12.2058 S.O2    1  UNL1        0.0421
     29 O          62.5072   88.3813   12.7887 O.2     1  UNL1       -0.1573
     30 C          63.9676   89.8128   13.3524 C.3     1  UNL1        0.1459
     31 C          64.5796   89.2704   14.6099 C.3     1  UNL1        0.0270
     32 C          65.0119   90.6057   14.0808 C.3     1  UNL1        0.0270
@<TRIPOS>BOND
     1    27    28    2
     2    28    29    2
     3    28    30    1
     4    30    31    1
     5    31    32    1
     6    28    21    1
     7    21    22    1
     8    22    23    1
     9    23    24    1
    10    24    20    1
    11    20     1    1
    12     1     2   ar
    13     2     3   ar
    14     3     4   ar
    15     4     5   ar
    16     5     6   ar
    17     5     7    1
    18     7     8    1
    19     8     9    1
    20     9    10    1
    21    10    11    1
    22    11    12    1
    23    12    16    1
    24    16    17    1
    25    17    18    1
    26    18    19    1
    27    12    13    1
    28    13    14    1
    29     9    15    1
    30    24    25    1
    31    25    26    1
    32    32    30    1
    33    26    21    1
    34     6     1   ar
    35    14     9    1
    36    15     4    1
    37    19    16    1
