@<TRIPOS>MOLECULE
*****
 17 18 0 0 0
SMALL
GASTEIGER

@<TRIPOS>ATOM
      1 N          63.2189   89.9912   16.2147 N.pl3   1  UNL1       -0.3375
      2 C          63.8293   90.5858   14.9803 C.ar    1  UNL1        0.1567
      3 N          63.2111   90.6078   13.6138 N.ar    1  UNL1       -0.2245
      4 C          64.1649   91.2984   12.6846 C.ar    1  UNL1        0.0894
      5 C          64.0896   91.6109   11.2194 C.ar    1  UNL1        0.0228
      6 C          65.2221   92.3283   10.5465 C.ar    1  UNL1        0.0388
      7 C          66.4298   92.7332   11.3387 C.ar    1  UNL1        0.1474
      8 C          66.5050   92.4207   12.8039 C.ar    1  UNL1        0.0452
      9 C          65.3725   91.7033   13.4768 C.ar    1  UNL1        0.0527
     10 S          65.1652   91.2629   14.8956 S.2     1  UNL1       -0.0519
     11 H          62.3322   89.5659   16.1695 H       1  UNL1        0.1442
     12 H          63.7051   90.0262   17.0701 H       1  UNL1        0.1442
     13 O          67.5623   93.4506   10.6657 O.3     1  UNL1       -0.4044
     14 C          68.2796   92.8078    9.5159 C.3     1  UNL1        0.5753
     15 F          68.9970   92.1648    8.3661 F       1  UNL1       -0.1328
     16 F          68.5069   91.5786   10.3450 F       1  UNL1       -0.1328
     17 F          68.0523   94.0369    8.6869 F       1  UNL1       -0.1328
@<TRIPOS>BOND
     1     1     2    1
     2     2     3   ar
     3     3     4   ar
     4     4     5   ar
     5     5     6   ar
     6     6     7   ar
     7     7    13    1
     8    13    14    1
     9    14    15    1
    10    14    16    1
    11    14    17    1
    12     7     8   ar
    13     8     9   ar
    14     9    10   ar
    15    10     2   ar
    16     9     4   ar
    17     1    11    1
    18     1    12    1
@<TRIPOS>MOLECULE
*****
 17 18 0 0 0
SMALL
GASTEIGER

@<TRIPOS>ATOM
      1 N          61.0260   89.6108   12.3716 N.pl3   1  UNL1       -0.3375
      2 C          62.3377   90.3343   12.2945 C.ar    1  UNL1        0.1567
      3 N          63.2862   90.5641   13.4336 N.ar    1  UNL1       -0.2245
      4 C          64.4659   91.3270   12.9080 C.ar    1  UNL1        0.0894
      5 C          65.7115   91.8327   13.5733 C.ar    1  UNL1        0.0228
      6 C          66.7377   92.5802   12.7745 C.ar    1  UNL1        0.0388
      7 C          66.5183   92.8220   11.3105 C.ar    1  UNL1        0.1474
      8 C          65.2727   92.3162   10.6452 C.ar    1  UNL1        0.0452
      9 C          64.2465   91.5687   11.4439 C.ar    1  UNL1        0.0527
     10 S          62.9312   90.9553   11.0648 S.2     1  UNL1       -0.0519
     11 H          60.7203   89.2359   13.2290 H       1  UNL1        0.1442
     12 H          60.4709   89.5107   11.5647 H       1  UNL1        0.1442
     13 O          67.5446   93.5695   10.5117 O.3     1  UNL1       -0.4044
     14 C          68.2577   92.8881    9.3817 C.3     1  UNL1        0.5753
     15 F          68.9709   92.2066    8.2516 F       1  UNL1       -0.1328
     16 F          67.9122   94.0312    8.4742 F       1  UNL1       -0.1328
     17 F          68.6033   91.7449   10.2892 F       1  UNL1       -0.1328
@<TRIPOS>BOND
     1     1     2    1
     2     2     3   ar
     3     3     4   ar
     4     4     5   ar
     5     5     6   ar
     6     6     7   ar
     7     7    13    1
     8    13    14    1
     9    14    15    1
    10    14    16    1
    11    14    17    1
    12     7     8   ar
    13     8     9   ar
    14     9    10   ar
    15    10     2   ar
    16     9     4   ar
    17     1    11    1
    18     1    12    1
@<TRIPOS>MOLECULE
*****
 17 18 0 0 0
SMALL
GASTEIGER

@<TRIPOS>ATOM
      1 N          63.7901   82.6500   15.3083 N.pl3   1  UNL1       -0.3375
      2 C          63.5844   83.1983   13.9273 C.ar    1  UNL1        0.1567
      3 N          64.1683   82.6429   12.6622 N.ar    1  UNL1       -0.2245
      4 C          63.7035   83.4996   11.5220 C.ar    1  UNL1        0.0894
      5 C          63.9610   83.4320   10.0458 C.ar    1  UNL1        0.0228
      6 C          63.3473   84.4492    9.1301 C.ar    1  UNL1        0.0388
      7 C          62.4760   85.5340    9.6906 C.ar    1  UNL1        0.1474
      8 C          62.2185   85.6016   11.1667 C.ar    1  UNL1        0.0452
      9 C          62.8322   84.5844   12.0824 C.ar    1  UNL1        0.0527
     10 S          62.7586   84.3982   13.5690 S.2     1  UNL1       -0.0519
     11 H          64.3528   81.8535   15.4429 H       1  UNL1        0.1442
     12 H          63.3623   83.0867   16.0801 H       1  UNL1        0.1442
     13 O          61.8623   86.5513    8.7748 O.3     1  UNL1       -0.4044
     14 C          60.5425   86.2709    8.1194 C.3     1  UNL1        0.5753
     15 F          59.2226   85.9906    7.4640 F       1  UNL1       -0.1328
     16 F          59.8384   86.9985    9.2261 F       1  UNL1       -0.1328
     17 F          61.2466   85.5433    7.0127 F       1  UNL1       -0.1328
@<TRIPOS>BOND
     1     1     2    1
     2     2     3   ar
     3     3     4   ar
     4     4     5   ar
     5     5     6   ar
     6     6     7   ar
     7     7    13    1
     8    13    14    1
     9    14    15    1
    10    14    16    1
    11    14    17    1
    12     7     8   ar
    13     8     9   ar
    14     9    10   ar
    15    10     2   ar
    16     9     4   ar
    17     1    11    1
    18     1    12    1
@<TRIPOS>MOLECULE
*****
 17 18 0 0 0
SMALL
GASTEIGER

@<TRIPOS>ATOM
      1 N          61.3479   88.3795    9.5081 N.pl3   1  UNL1       -0.3375
      2 C          62.1883   88.9219   10.6259 C.ar    1  UNL1        0.1567
      3 N          62.6332   88.1647   11.8420 N.ar    1  UNL1       -0.2245
      4 C          63.4511   89.0916   12.6917 C.ar    1  UNL1        0.0894
      5 C          64.1485   88.8963   14.0052 C.ar    1  UNL1        0.0228
      6 C          64.9065   90.0310   14.6279 C.ar    1  UNL1        0.0388
      7 C          64.9671   91.3611   13.9370 C.ar    1  UNL1        0.1474
      8 C          64.2697   91.5564   12.6234 C.ar    1  UNL1        0.0452
      9 C          63.5117   90.4216   12.0008 C.ar    1  UNL1        0.0527
     10 S          62.7312   90.3167   10.7241 S.2     1  UNL1       -0.0519
     11 H          61.0377   87.4455    9.5339 H       1  UNL1        0.1442
     12 H          61.1066   88.9575    8.7485 H       1  UNL1        0.1442
     13 O          65.7251   92.4958   14.5597 O.3     1  UNL1       -0.4044
     14 C          66.9068   92.2149   15.4398 C.3     1  UNL1        0.5753
     15 F          68.0886   91.9339   16.3200 F       1  UNL1       -0.1328
     16 F          67.6362   91.6214   14.2712 F       1  UNL1       -0.1328
     17 F          66.1775   92.8083   16.6085 F       1  UNL1       -0.1328
@<TRIPOS>BOND
     1     1     2    1
     2     2     3   ar
     3     3     4   ar
     4     4     5   ar
     5     5     6   ar
     6     6     7   ar
     7     7    13    1
     8    13    14    1
     9    14    15    1
    10    14    16    1
    11    14    17    1
    12     7     8   ar
    13     8     9   ar
    14     9    10   ar
    15    10     2   ar
    16     9     4   ar
    17     1    11    1
    18     1    12    1
@<TRIPOS>MOLECULE
*****
 17 18 0 0 0
SMALL
GASTEIGER

@<TRIPOS>ATOM
      1 N          60.8953   88.4717    9.2227 N.pl3   1  UNL1       -0.3375
      2 C          61.5417   87.1889    9.6546 C.ar    1  UNL1        0.1567
      3 N          62.4086   86.3084    8.8042 N.ar    1  UNL1       -0.2245
      4 C          62.8373   85.1367    9.6367 C.ar    1  UNL1        0.0894
      5 C          63.6980   83.9476    9.3282 C.ar    1  UNL1        0.0228
      6 C          63.9568   82.9148   10.3847 C.ar    1  UNL1        0.0388
      7 C          63.3549   83.0710   11.7498 C.ar    1  UNL1        0.1474
      8 C          62.4942   84.2601   12.0582 C.ar    1  UNL1        0.0452
      9 C          62.2354   85.2929   11.0017 C.ar    1  UNL1        0.0527
     10 S          61.4346   86.5613   11.0128 S.2     1  UNL1       -0.0519
     11 H          61.0253   88.8039    8.3051 H       1  UNL1        0.1442
     12 H          60.3410   88.9816    9.8569 H       1  UNL1        0.1442
     13 O          63.6137   82.0381   12.8063 O.3     1  UNL1       -0.4044
     14 C          62.5076   81.1290   13.2533 C.3     1  UNL1        0.5753
     15 F          61.4014   80.2197   13.7002 F       1  UNL1       -0.1328
     16 F          62.6988   80.2917   12.0235 F       1  UNL1       -0.1328
     17 F          62.3163   81.9662   14.4830 F       1  UNL1       -0.1328
@<TRIPOS>BOND
     1     1     2    1
     2     2     3   ar
     3     3     4   ar
     4     4     5   ar
     5     5     6   ar
     6     6     7   ar
     7     7    13    1
     8    13    14    1
     9    14    15    1
    10    14    16    1
    11    14    17    1
    12     7     8   ar
    13     8     9   ar
    14     9    10   ar
    15    10     2   ar
    16     9     4   ar
    17     1    11    1
    18     1    12    1
@<TRIPOS>MOLECULE
*****
 17 18 0 0 0
SMALL
GASTEIGER

@<TRIPOS>ATOM
      1 N          63.4730   82.4541   14.7993 N.pl3   1  UNL1       -0.3375
      2 C          63.2297   83.2524   13.5529 C.ar    1  UNL1        0.1567
      3 N          62.5287   84.5764   13.4767 N.ar    1  UNL1       -0.2245
      4 C          62.5104   85.0093   12.0406 C.ar    1  UNL1        0.0894
      5 C          61.9549   86.2289   11.3670 C.ar    1  UNL1        0.0228
      6 C          62.0890   86.3921    9.8820 C.ar    1  UNL1        0.0388
      7 C          62.7786   85.3356    9.0706 C.ar    1  UNL1        0.1474
      8 C          63.3342   84.1160    9.7443 C.ar    1  UNL1        0.0452
      9 C          63.2001   83.9528   11.2293 C.ar    1  UNL1        0.0527
     10 S          63.6446   82.8671   12.1639 S.2     1  UNL1       -0.0519
     11 H          63.1609   82.7925   15.6695 H       1  UNL1        0.1442
     12 H          63.9449   81.5916   14.7471 H       1  UNL1        0.1442
     13 O          62.9127   85.4989    7.5855 O.3     1  UNL1       -0.4044
     14 C          61.9768   84.7746    6.6638 C.3     1  UNL1        0.5753
     15 F          61.0410   84.0502    5.7421 F       1  UNL1       -0.1328
     16 F          63.1475   84.2573    5.8817 F       1  UNL1       -0.1328
     17 F          60.8062   85.2919    7.4460 F       1  UNL1       -0.1328
@<TRIPOS>BOND
     1     1     2    1
     2     2     3   ar
     3     3     4   ar
     4     4     5   ar
     5     5     6   ar
     6     6     7   ar
     7     7    13    1
     8    13    14    1
     9    14    15    1
    10    14    16    1
    11    14    17    1
    12     7     8   ar
    13     8     9   ar
    14     9    10   ar
    15    10     2   ar
    16     9     4   ar
    17     1    11    1
    18     1    12    1
@<TRIPOS>MOLECULE
*****
 17 18 0 0 0
SMALL
GASTEIGER

@<TRIPOS>ATOM
      1 N          60.3502   87.6707    8.4550 N.pl3   1  UNL1       -0.3375
      2 C          61.2009   86.6950    9.2127 C.ar    1  UNL1        0.1567
      3 N          62.1296   85.6822    8.6112 N.ar    1  UNL1       -0.2245
      4 C          62.7751   84.9220    9.7316 C.ar    1  UNL1        0.0894
      5 C          63.7767   83.8055    9.7408 C.ar    1  UNL1        0.0228
      6 C          64.2486   83.2320   11.0439 C.ar    1  UNL1        0.0388
      7 C          63.7189   83.7750   12.3380 C.ar    1  UNL1        0.1474
      8 C          62.7172   84.8914   12.3289 C.ar    1  UNL1        0.0452
      9 C          62.2453   85.4649   11.0257 C.ar    1  UNL1        0.0527
     10 S          61.2725   86.5607   10.7049 S.2     1  UNL1       -0.0519
     11 H          60.3721   87.6823    7.4708 H       1  UNL1        0.1442
     12 H          59.7699   88.2996    8.9419 H       1  UNL1        0.1442
     13 O          64.1909   83.2014   13.6412 O.3     1  UNL1       -0.4044
     14 C          64.1898   84.0498   14.8782 C.3     1  UNL1        0.5753
     15 F          64.1888   84.8981   16.1153 F       1  UNL1       -0.1328
     16 F          62.9963   83.3000   15.3914 F       1  UNL1       -0.1328
     17 F          65.3833   84.7995   14.3651 F       1  UNL1       -0.1328
@<TRIPOS>BOND
     1     1     2    1
     2     2     3   ar
     3     3     4   ar
     4     4     5   ar
     5     5     6   ar
     6     6     7   ar
     7     7    13    1
     8    13    14    1
     9    14    15    1
    10    14    16    1
    11    14    17    1
    12     7     8   ar
    13     8     9   ar
    14     9    10   ar
    15    10     2   ar
    16     9     4   ar
    17     1    11    1
    18     1    12    1
@<TRIPOS>MOLECULE
*****
 17 18 0 0 0
SMALL
GASTEIGER

@<TRIPOS>ATOM
      1 N          58.7757   88.6854    6.9062 N.pl3   1  UNL1       -0.3375
      2 C          59.6682   88.1174    7.9696 C.ar    1  UNL1        0.1567
      3 N          60.3881   88.9004    9.0273 N.ar    1  UNL1       -0.2245
      4 C          61.1623   87.9337    9.8735 C.ar    1  UNL1        0.0894
      5 C          62.0558   88.1321   11.0618 C.ar    1  UNL1        0.0228
      6 C          62.7080   86.9500   11.7154 C.ar    1  UNL1        0.0388
      7 C          62.4666   85.5694   11.1807 C.ar    1  UNL1        0.1474
      8 C          61.5730   85.3710    9.9924 C.ar    1  UNL1        0.0452
      9 C          60.9208   86.5531    9.3388 C.ar    1  UNL1        0.0527
     10 S          59.9975   86.6667    8.1622 S.2     1  UNL1       -0.0519
     11 H          58.6201   89.6564    6.8611 H       1  UNL1        0.1442
     12 H          58.3456   88.0871    6.2533 H       1  UNL1        0.1442
     13 O          63.1188   84.3873   11.8344 O.3     1  UNL1       -0.4044
     14 C          63.3031   83.1124   11.0660 C.3     1  UNL1        0.5753
     15 F          63.4875   81.8374   10.2974 F       1  UNL1       -0.1328
     16 F          64.4129   83.7462   10.2807 F       1  UNL1       -0.1328
     17 F          62.1934   82.4786   11.8512 F       1  UNL1       -0.1328
@<TRIPOS>BOND
     1     1     2    1
     2     2     3   ar
     3     3     4   ar
     4     4     5   ar
     5     5     6   ar
     6     6     7   ar
     7     7    13    1
     8    13    14    1
     9    14    15    1
    10    14    16    1
    11    14    17    1
    12     7     8   ar
    13     8     9   ar
    14     9    10   ar
    15    10     2   ar
    16     9     4   ar
    17     1    11    1
    18     1    12    1
@<TRIPOS>MOLECULE
*****
 17 18 0 0 0
SMALL
GASTEIGER

@<TRIPOS>ATOM
      1 N          63.9321   81.2086   13.8809 N.pl3   1  UNL1       -0.3375
      2 C          63.6162   82.2422   12.8407 C.ar    1  UNL1        0.1567
      3 N          64.1232   82.2561   11.4291 N.ar    1  UNL1       -0.2245
      4 C          63.5582   83.4658   10.7455 C.ar    1  UNL1        0.0894
      5 C          63.7127   83.9940    9.3502 C.ar    1  UNL1        0.0228
      6 C          63.0111   85.2560    8.9440 C.ar    1  UNL1        0.0388
      7 C          62.1548   85.9898    9.9332 C.ar    1  UNL1        0.1474
      8 C          62.0003   85.4616   11.3285 C.ar    1  UNL1        0.0452
      9 C          62.7020   84.1996   11.7347 C.ar    1  UNL1        0.0527
     10 S          62.7379   83.4433   13.0296 S.2     1  UNL1       -0.0519
     11 H          64.5225   80.4523   13.6600 H       1  UNL1        0.1442
     12 H          63.5491   81.2864   14.7845 H       1  UNL1        0.1442
     13 O          61.4531   87.2518    9.5269 O.3     1  UNL1       -0.4044
     14 C          61.2858   88.3682   10.5147 C.3     1  UNL1        0.5753
     15 F          61.1184   89.4846   11.5025 F       1  UNL1       -0.1328
     16 F          59.8846   87.9114   10.7935 F       1  UNL1       -0.1328
     17 F          62.6871   88.8249   10.2358 F       1  UNL1       -0.1328
@<TRIPOS>BOND
     1     1     2    1
     2     2     3   ar
     3     3     4   ar
     4     4     5   ar
     5     5     6   ar
     6     6     7   ar
     7     7    13    1
     8    13    14    1
     9    14    15    1
    10    14    16    1
    11    14    17    1
    12     7     8   ar
    13     8     9   ar
    14     9    10   ar
    15    10     2   ar
    16     9     4   ar
    17     1    11    1
    18     1    12    1
