@<TRIPOS>MOLECULE
*****
 43 45 0 0 0
SMALL
GASTEIGER

@<TRIPOS>ATOM
      1 C          63.6648   89.7532   12.8293 C.3     1  UNL1        0.1086
      2 O          63.4831   89.1319   11.4763 O.3     1  UNL1       -0.3826
      3 H          63.2950   89.8253   10.8247 H       1  UNL1        0.2107
      4 C          63.9091   88.3962   13.4197 C.3     1  UNL1        0.0485
      5 C          64.7661   88.2534   14.6425 C.3     1  UNL1        0.0061
      6 C          65.0104   86.8962   15.2329 C.3     1  UNL1        0.0217
      7 C          64.3977   85.6819   14.6005 C.3     1  UNL1        0.0934
      8 N          63.5407   85.8247   13.3778 N.am    1  UNL1       -0.2794
      9 C          62.9280   84.6102   12.7454 C.2     1  UNL1        0.2282
     10 O          62.0710   84.7530   11.5226 O.2     1  UNL1       -0.2748
     11 C          63.2964   87.1817   12.7874 C.3     1  UNL1        0.0960
     12 C          63.1723   83.2532   13.3358 C.3     1  UNL1        0.1162
     13 C          63.5722   82.1108   12.4498 C.3     1  UNL1        0.1401
     14 O          64.6820   82.2854   11.4558 O.3     1  UNL1       -0.3517
     15 C          64.3711   82.7124   10.0519 C.3     1  UNL1        0.1741
     16 C          62.8624   80.7937   12.5578 C.3     1  UNL1        0.0990
     17 N          62.2169   80.3934   13.8512 N.3     1  UNL1       -0.2943
     18 C          60.7771   80.7279   14.1059 C.3     1  UNL1        0.0859
     19 H          62.7573   80.8307   14.5977 H       1  UNL1        0.1234
     20 C          64.9546   91.3591   14.4130 C.ar    1  UNL1        0.0257
     21 C          65.1364   91.9804   15.7660 C.ar    1  UNL1        0.1398
     22 F          66.2444   92.9649   15.9965 F       1  UNL1       -0.2042
     23 C          64.2102   91.6173   16.8887 C.ar    1  UNL1        0.0296
     24 C          63.1022   90.6328   16.6582 C.ar    1  UNL1        0.0021
     25 C          62.9204   90.0115   15.3051 C.ar    1  UNL1       -0.0019
     26 C          63.8466   90.3746   14.1825 C.ar    1  UNL1        0.0039
     27 C          66.3461   93.0179   11.0870 C.ar    1  UNL1       -0.0222
     28 C          67.7331   92.4484   11.0451 C.ar    1  UNL1       -0.0043
     29 C          68.1940   91.5158   12.1257 C.ar    1  UNL1       -0.0003
     30 C          67.2679   91.1527   13.2484 C.ar    1  UNL1        0.0000
     31 C          65.8808   91.7222   13.2903 C.ar    1  UNL1        0.0016
     32 C          65.4200   92.6548   12.2096 C.ar    1  UNL1       -0.0042
     33 C          66.8739   94.8370    9.3088 C.3     1  UNL1        0.0050
     34 C          65.8853   93.9505   10.0064 C.3     1  UNL1        0.0264
     35 C          63.4205   91.1103   12.2389 C.3     1  UNL1        0.0330
     36 C          62.6968   91.2402   10.9315 C.3     1  UNL1        0.0241
     37 C          61.2373   90.9050   10.8457 C.3     1  UNL1        0.0928
     38 N          60.7431   89.9738    9.7786 N.am    1  UNL1       -0.2707
     39 C          60.2912   88.5902   10.1411 C.2     1  UNL1        0.4017
     40 O          60.3334   88.1378   11.5706 O.2     1  UNL1       -0.2264
     41 H          60.7154   90.2707    8.8404 H       1  UNL1        0.1527
     42 O          59.7970   87.6590    9.0740 O.3     1  UNL1       -0.4306
     43 C          60.5448   86.3926    8.7785 C.3     1  UNL1        0.2573
@<TRIPOS>BOND
     1    33    34    1
     2    34    27    1
     3    27    28   ar
     4    28    29   ar
     5    29    30   ar
     6    30    31   ar
     7    31    20    1
     8    20    21   ar
     9    21    22    1
    10    21    23   ar
    11    23    24   ar
    12    24    25   ar
    13    25    26   ar
    14    26     1    1
    15     1     2    1
    16     1    35    1
    17    35    36    1
    18    36    37    1
    19    37    38    1
    20    38    39   am
    21    39    40    2
    22    39    42    1
    23    42    43    1
    24     4     1    1
    25     4     5    1
    26     5     6    1
    27     6     7    1
    28     7     8    1
    29     8     9   am
    30     9    10    2
    31     9    12    1
    32    12    13    1
    33    13    16    1
    34    16    17    1
    35    17    18    1
    36    13    14    1
    37    14    15    1
    38     8    11    1
    39    31    32   ar
    40    32    27   ar
    41    26    20   ar
    42    11     4    1
    43     2     3    1
    44    38    41    1
    45    17    19    1
@<TRIPOS>MOLECULE
*****
 43 45 0 0 0
SMALL
GASTEIGER

@<TRIPOS>ATOM
      1 C          63.0412   88.4051   12.4862 C.3     1  UNL1        0.1086
      2 O          64.4322   88.1813   13.0010 O.3     1  UNL1       -0.3826
      3 H          64.4706   87.3333   13.4704 H       1  UNL1        0.2107
      4 C          63.4699   89.7168   11.8983 C.3     1  UNL1        0.0485
      5 C          62.9752   90.1289   10.5435 C.3     1  UNL1        0.0061
      6 C          63.4039   91.4406    9.9555 C.3     1  UNL1        0.0217
      7 C          64.3274   92.3401   10.7223 C.3     1  UNL1        0.0934
      8 N          64.8221   91.9280   12.0771 N.am    1  UNL1       -0.2794
      9 C          65.7457   92.8276   12.8439 C.2     1  UNL1        0.2282
     10 O          66.2404   92.4155   14.1987 O.2     1  UNL1       -0.2748
     11 C          64.3934   90.6164   12.6651 C.3     1  UNL1        0.0960
     12 C          66.1744   94.1393   12.2559 C.3     1  UNL1        0.1162
     13 C          66.9749   94.1668   10.9877 C.3     1  UNL1        0.1401
     14 O          67.8024   92.9782   10.5972 O.3     1  UNL1       -0.3517
     15 C          68.3418   92.8655    9.2020 C.3     1  UNL1        0.1741
     16 C          66.9479   95.3829   10.1100 C.3     1  UNL1        0.0990
     17 N          65.7154   95.7109    9.3206 N.3     1  UNL1       -0.2943
     18 C          64.7819   96.7832    9.7989 C.3     1  UNL1        0.0859
     19 H          65.1692   94.8519    9.2570 H       1  UNL1        0.1234
     20 C          61.0921   87.7341   10.9049 C.ar    1  UNL1        0.0257
     21 C          59.7011   87.9580   10.3900 C.ar    1  UNL1        0.1398
     22 F          59.1430   87.0630    9.3235 F       1  UNL1       -0.2042
     23 C          58.8682   89.0769   10.9418 C.ar    1  UNL1        0.0296
     24 C          59.4263   89.9719   12.0083 C.ar    1  UNL1        0.0021
     25 C          60.8173   89.7480   12.5231 C.ar    1  UNL1       -0.0019
     26 C          61.6502   88.6291   11.9714 C.ar    1  UNL1        0.0039
     27 C          62.9388   84.2352   10.5933 C.ar    1  UNL1       -0.0222
     28 C          63.5907   84.3774    9.2499 C.ar    1  UNL1       -0.0043
     29 C          63.4097   85.6385    8.4581 C.ar    1  UNL1       -0.0003
     30 C          62.5769   86.7574    9.0097 C.ar    1  UNL1        0.0000
     31 C          61.9250   86.6152   10.3531 C.ar    1  UNL1        0.0016
     32 C          62.1060   85.3541   11.1449 C.ar    1  UNL1       -0.0042
     33 C          64.4627   82.3079   11.4378 C.3     1  UNL1        0.0050
     34 C          63.1198   82.9741   11.3850 C.3     1  UNL1        0.0264
     35 C          62.6125   87.0935   13.0742 C.3     1  UNL1        0.0330
     36 C          63.6195   86.2080   13.7464 C.3     1  UNL1        0.0241
     37 C          63.2022   85.3306   14.8893 C.3     1  UNL1        0.0928
     38 N          62.1501   84.2814   14.6840 N.am    1  UNL1       -0.2707
     39 C          62.5239   82.8290   14.7116 C.2     1  UNL1        0.4017
     40 O          63.9499   82.4258   14.9445 O.2     1  UNL1       -0.2264
     41 H          61.2143   84.5460   14.5312 H       1  UNL1        0.1527
     42 O          61.4718   81.7797   14.5064 O.3     1  UNL1       -0.4306
     43 C          61.8143   80.5028   13.7977 C.3     1  UNL1        0.2573
@<TRIPOS>BOND
     1    33    34    1
     2    34    27    1
     3    27    28   ar
     4    28    29   ar
     5    29    30   ar
     6    30    31   ar
     7    31    20    1
     8    20    21   ar
     9    21    22    1
    10    21    23   ar
    11    23    24   ar
    12    24    25   ar
    13    25    26   ar
    14    26     1    1
    15     1     2    1
    16     1    35    1
    17    35    36    1
    18    36    37    1
    19    37    38    1
    20    38    39   am
    21    39    40    2
    22    39    42    1
    23    42    43    1
    24     4     1    1
    25     4     5    1
    26     5     6    1
    27     6     7    1
    28     7     8    1
    29     8     9   am
    30     9    10    2
    31     9    12    1
    32    12    13    1
    33    13    16    1
    34    16    17    1
    35    17    18    1
    36    13    14    1
    37    14    15    1
    38     8    11    1
    39    31    32   ar
    40    32    27   ar
    41    26    20   ar
    42    11     4    1
    43     2     3    1
    44    38    41    1
    45    17    19    1
@<TRIPOS>MOLECULE
*****
 43 45 0 0 0
SMALL
GASTEIGER

@<TRIPOS>ATOM
      1 C          63.5808   89.5409   12.8576 C.3     1  UNL1        0.1086
      2 O          63.5017   88.9426   11.4844 O.3     1  UNL1       -0.3826
      3 H          63.3082   89.6400   10.8385 H       1  UNL1        0.2107
      4 C          63.8701   88.1855   13.4314 C.3     1  UNL1        0.0485
      5 C          64.7791   88.0515   14.6171 C.3     1  UNL1        0.0061
      6 C          65.0683   86.6960   15.1909 C.3     1  UNL1        0.0217
      7 C          64.4487   85.4748   14.5790 C.3     1  UNL1        0.0934
      8 N          63.5398   85.6088   13.3933 N.am    1  UNL1       -0.2794
      9 C          62.9201   84.3874   12.7814 C.2     1  UNL1        0.2282
     10 O          62.0112   84.5215   11.5957 O.2     1  UNL1       -0.2748
     11 C          63.2505   86.9642   12.8195 C.3     1  UNL1        0.0960
     12 C          63.2094   83.0321   13.3552 C.3     1  UNL1        0.1162
     13 C          62.8682   81.7983   12.5734 C.3     1  UNL1        0.1401
     14 O          62.1764   80.6507   13.2474 O.3     1  UNL1       -0.3517
     15 C          60.9742   80.9011   14.1089 C.3     1  UNL1        0.1741
     16 C          63.2188   81.7121   11.1174 C.3     1  UNL1        0.0990
     17 N          64.4199   82.4401   10.5908 N.3     1  UNL1       -0.2943
     18 C          64.2569   83.4838    9.5259 C.3     1  UNL1        0.0859
     19 H          65.0519   81.7328   10.2157 H       1  UNL1        0.1234
     20 C          64.7220   91.1497   14.5486 C.ar    1  UNL1        0.0257
     21 C          64.8013   91.7479   15.9219 C.ar    1  UNL1        0.1398
     22 F          65.8633   92.7585   16.2396 F       1  UNL1       -0.2042
     23 C          63.8185   91.3356   16.9774 C.ar    1  UNL1        0.0296
     24 C          62.7565   90.3251   16.6597 C.ar    1  UNL1        0.0021
     25 C          62.6773   89.7268   15.2864 C.ar    1  UNL1       -0.0019
     26 C          63.6600   90.1391   14.2309 C.ar    1  UNL1        0.0039
     27 C          66.2348   92.8088   11.2761 C.ar    1  UNL1       -0.0222
     28 C          67.6702   92.3866   11.3819 C.ar    1  UNL1       -0.0043
     29 C          68.1230   91.5522   12.5433 C.ar    1  UNL1       -0.0003
     30 C          67.1403   91.1399   13.5988 C.ar    1  UNL1        0.0000
     31 C          65.7048   91.5620   13.4930 C.ar    1  UNL1        0.0016
     32 C          65.2521   92.3964   12.3317 C.ar    1  UNL1       -0.0042
     33 C          66.7458   94.5721    9.4378 C.3     1  UNL1        0.0050
     34 C          65.7821   93.6432   10.1148 C.3     1  UNL1        0.0264
     35 C          63.2916   90.8962   12.2838 C.3     1  UNL1        0.0330
     36 C          62.4652   91.0226   11.0384 C.3     1  UNL1        0.0241
     37 C          61.0111   90.6553   11.0626 C.3     1  UNL1        0.0928
     38 N          60.3112   90.2791    9.7904 N.am    1  UNL1       -0.2707
     39 C          60.3664   88.8646    9.2941 C.2     1  UNL1        0.4017
     40 O          61.1214   87.8264   10.0701 O.2     1  UNL1       -0.2264
     41 H          59.8157   90.9605    9.2811 H       1  UNL1        0.1527
     42 O          59.6665   88.4884    8.0218 O.3     1  UNL1       -0.4306
     43 C          59.0980   87.1099    7.8580 C.3     1  UNL1        0.2573
@<TRIPOS>BOND
     1    33    34    1
     2    34    27    1
     3    27    28   ar
     4    28    29   ar
     5    29    30   ar
     6    30    31   ar
     7    31    20    1
     8    20    21   ar
     9    21    22    1
    10    21    23   ar
    11    23    24   ar
    12    24    25   ar
    13    25    26   ar
    14    26     1    1
    15     1     2    1
    16     1    35    1
    17    35    36    1
    18    36    37    1
    19    37    38    1
    20    38    39   am
    21    39    40    2
    22    39    42    1
    23    42    43    1
    24     4     1    1
    25     4     5    1
    26     5     6    1
    27     6     7    1
    28     7     8    1
    29     8     9   am
    30     9    10    2
    31     9    12    1
    32    12    13    1
    33    13    16    1
    34    16    17    1
    35    17    18    1
    36    13    14    1
    37    14    15    1
    38     8    11    1
    39    31    32   ar
    40    32    27   ar
    41    26    20   ar
    42    11     4    1
    43     2     3    1
    44    38    41    1
    45    17    19    1
@<TRIPOS>MOLECULE
*****
 43 45 0 0 0
SMALL
GASTEIGER

@<TRIPOS>ATOM
      1 C          62.4463   86.9415   12.2230 C.3     1  UNL1        0.1086
      2 O          63.4499   86.8296   13.3321 O.3     1  UNL1       -0.3826
      3 H          63.3692   85.9602   13.7547 H       1  UNL1        0.2107
      4 C          62.9336   88.3278   11.9220 C.3     1  UNL1        0.0485
      5 C          62.6850   88.9336   10.5724 C.3     1  UNL1        0.0061
      6 C          63.1724   90.3200   10.2714 C.3     1  UNL1        0.0217
      7 C          63.9082   91.1005   11.3198 C.3     1  UNL1        0.0934
      8 N          64.1567   90.4947   12.6694 N.am    1  UNL1       -0.2794
      9 C          64.8926   91.2752   13.7179 C.2     1  UNL1        0.2282
     10 O          65.1412   90.6695   15.0674 O.2     1  UNL1       -0.2748
     11 C          63.6694   89.1084   12.9705 C.3     1  UNL1        0.0960
     12 C          65.3799   92.6615   13.4168 C.3     1  UNL1        0.1162
     13 C          66.7358   92.8642   12.8082 C.3     1  UNL1        0.1401
     14 O          66.9629   93.9866   11.8393 O.3     1  UNL1       -0.3517
     15 C          66.2806   93.9737   10.5035 C.3     1  UNL1        0.1741
     16 C          67.8647   91.9445   13.1685 C.3     1  UNL1        0.0990
     17 N          68.7887   92.2972   14.2962 N.3     1  UNL1       -0.2943
     18 C          68.2871   92.2813   15.7097 C.3     1  UNL1        0.0859
     19 H          69.1277   93.2419   14.1146 H       1  UNL1        0.1234
     20 C          61.3968   86.0116   10.0358 C.ar    1  UNL1        0.0257
     21 C          60.3932   86.1235    8.9267 C.ar    1  UNL1        0.1398
     22 F          60.3475   85.0816    7.8486 F       1  UNL1       -0.2042
     23 C          59.4352   87.2774    8.8957 C.ar    1  UNL1        0.0296
     24 C          59.4810   88.3193    9.9738 C.ar    1  UNL1        0.0021
     25 C          60.4847   88.2073   11.0829 C.ar    1  UNL1       -0.0019
     26 C          61.4426   87.0535   11.1139 C.ar    1  UNL1        0.0039
     27 C          63.0052   82.4960   10.9326 C.ar    1  UNL1       -0.0222
     28 C          64.2706   82.5499   10.1290 C.ar    1  UNL1       -0.0043
     29 C          64.5780   83.7577    9.2943 C.ar    1  UNL1       -0.0003
     30 C          63.6202   84.9116    9.2632 C.ar    1  UNL1        0.0000
     31 C          62.3548   84.8577   10.0668 C.ar    1  UNL1        0.0016
     32 C          62.0473   83.6499   10.9016 C.ar    1  UNL1       -0.0042
     33 C          63.4185   81.0698   13.0645 C.3     1  UNL1        0.0050
     34 C          62.6977   81.2883   11.7673 C.3     1  UNL1        0.0264
     35 C          61.9590   85.5552   12.5241 C.3     1  UNL1        0.0330
     36 C          62.7490   84.6641   13.4362 C.3     1  UNL1        0.0241
     37 C          62.1530   84.1995   14.7319 C.3     1  UNL1        0.0928
     38 N          61.9461   85.1732   15.8540 N.am    1  UNL1       -0.2707
     39 C          63.1227   85.8752   16.4645 C.2     1  UNL1        0.4017
     40 O          64.5064   85.6035   15.9529 O.2     1  UNL1       -0.2264
     41 H          61.0380   85.3515   16.1898 H       1  UNL1        0.1527
     42 O          62.9157   86.8488   17.5866 O.3     1  UNL1       -0.4306
     43 C          63.0250   88.3228   17.3304 C.3     1  UNL1        0.2573
@<TRIPOS>BOND
     1    33    34    1
     2    34    27    1
     3    27    28   ar
     4    28    29   ar
     5    29    30   ar
     6    30    31   ar
     7    31    20    1
     8    20    21   ar
     9    21    22    1
    10    21    23   ar
    11    23    24   ar
    12    24    25   ar
    13    25    26   ar
    14    26     1    1
    15     1     2    1
    16     1    35    1
    17    35    36    1
    18    36    37    1
    19    37    38    1
    20    38    39   am
    21    39    40    2
    22    39    42    1
    23    42    43    1
    24     4     1    1
    25     4     5    1
    26     5     6    1
    27     6     7    1
    28     7     8    1
    29     8     9   am
    30     9    10    2
    31     9    12    1
    32    12    13    1
    33    13    16    1
    34    16    17    1
    35    17    18    1
    36    13    14    1
    37    14    15    1
    38     8    11    1
    39    31    32   ar
    40    32    27   ar
    41    26    20   ar
    42    11     4    1
    43     2     3    1
    44    38    41    1
    45    17    19    1
@<TRIPOS>MOLECULE
*****
 43 45 0 0 0
SMALL
GASTEIGER

@<TRIPOS>ATOM
      1 C          62.9184   87.9697   12.4400 C.3     1  UNL1        0.1086
      2 O          64.2766   87.7395   13.0335 O.3     1  UNL1       -0.3826
      3 H          64.3024   86.8652   13.4527 H       1  UNL1        0.2107
      4 C          63.3565   89.3224   11.9622 C.3     1  UNL1        0.0485
      5 C          62.8989   89.8306   10.6271 C.3     1  UNL1        0.0061
      6 C          63.3370   91.1834   10.1494 C.3     1  UNL1        0.0217
      7 C          64.2325   92.0278   11.0066 C.3     1  UNL1        0.0934
      8 N          64.6901   91.5195   12.3416 N.am    1  UNL1       -0.2794
      9 C          65.5857   92.3640   13.1988 C.2     1  UNL1        0.2282
     10 O          66.0433   91.8557   14.5338 O.2     1  UNL1       -0.2748
     11 C          64.2521   90.1668   12.8194 C.3     1  UNL1        0.0960
     12 C          66.0237   93.7167   12.7210 C.3     1  UNL1        0.1162
     13 C          66.7565   93.8512   11.4192 C.3     1  UNL1        0.1401
     14 O          67.6462   92.7421   10.9412 O.3     1  UNL1       -0.3517
     15 C          68.1651   92.7505    9.5338 C.3     1  UNL1        0.1741
     16 C          66.5997   95.0948   10.5951 C.3     1  UNL1        0.0990
     17 N          65.5733   96.1209   10.9739 N.3     1  UNL1       -0.2943
     18 C          64.7390   96.7745    9.9124 C.3     1  UNL1        0.0859
     19 H          66.0692   96.8679   11.4601 H       1  UNL1        0.1234
     20 C          61.0861   87.3487   10.7059 C.ar    1  UNL1        0.0257
     21 C          59.7279   87.5789   10.1124 C.ar    1  UNL1        0.1398
     22 F          59.2538   86.7278    8.9718 F       1  UNL1       -0.2042
     23 C          58.8438   88.6602   10.6593 C.ar    1  UNL1        0.0296
     24 C          59.3179   89.5114   11.7998 C.ar    1  UNL1        0.0021
     25 C          60.6762   89.2812   12.3934 C.ar    1  UNL1       -0.0019
     26 C          61.5602   88.1999   11.8464 C.ar    1  UNL1        0.0039
     27 C          63.1031   83.9433   10.4144 C.ar    1  UNL1       -0.0222
     28 C          63.7383   84.1048    9.0652 C.ar    1  UNL1       -0.0043
     29 C          63.4896   85.3475    8.2629 C.ar    1  UNL1       -0.0003
     30 C          62.6055   86.4288    8.8098 C.ar    1  UNL1        0.0000
     31 C          61.9702   86.2674   10.1590 C.ar    1  UNL1        0.0016
     32 C          62.2190   85.0246   10.9612 C.ar    1  UNL1       -0.0042
     33 C          62.4118   82.3208   12.3221 C.3     1  UNL1        0.0050
     34 C          63.3518   82.7006   11.2166 C.3     1  UNL1        0.0264
     35 C          62.4804   86.6170   12.9178 C.3     1  UNL1        0.0330
     36 C          63.4854   85.6625   13.4915 C.3     1  UNL1        0.0241
     37 C          63.6883   85.5897   14.9759 C.3     1  UNL1        0.0928
     38 N          63.8788   86.8482   15.7695 N.am    1  UNL1       -0.2707
     39 C          62.9098   87.2021   16.8584 C.2     1  UNL1        0.4017
     40 O          61.7503   86.2975   17.1538 O.2     1  UNL1       -0.2264
     41 H          64.6398   87.4419   15.5756 H       1  UNL1        0.1527
     42 O          63.1003   88.4607   17.6520 O.3     1  UNL1       -0.4306
     43 C          63.2410   89.7775   16.9475 C.3     1  UNL1        0.2573
@<TRIPOS>BOND
     1    33    34    1
     2    34    27    1
     3    27    28   ar
     4    28    29   ar
     5    29    30   ar
     6    30    31   ar
     7    31    20    1
     8    20    21   ar
     9    21    22    1
    10    21    23   ar
    11    23    24   ar
    12    24    25   ar
    13    25    26   ar
    14    26     1    1
    15     1     2    1
    16     1    35    1
    17    35    36    1
    18    36    37    1
    19    37    38    1
    20    38    39   am
    21    39    40    2
    22    39    42    1
    23    42    43    1
    24     4     1    1
    25     4     5    1
    26     5     6    1
    27     6     7    1
    28     7     8    1
    29     8     9   am
    30     9    10    2
    31     9    12    1
    32    12    13    1
    33    13    16    1
    34    16    17    1
    35    17    18    1
    36    13    14    1
    37    14    15    1
    38     8    11    1
    39    31    32   ar
    40    32    27   ar
    41    26    20   ar
    42    11     4    1
    43     2     3    1
    44    38    41    1
    45    17    19    1
@<TRIPOS>MOLECULE
*****
 43 45 0 0 0
SMALL
GASTEIGER

@<TRIPOS>ATOM
      1 C          62.4649   87.5022   12.0275 C.3     1  UNL1        0.1086
      2 O          63.4104   86.5380   12.6804 O.3     1  UNL1       -0.3826
      3 H          63.1188   85.6298   12.5042 H       1  UNL1        0.2107
      4 C          63.2775   88.6509   12.5472 C.3     1  UNL1        0.0485
      5 C          63.8306   88.6084   13.9408 C.3     1  UNL1        0.0061
      6 C          64.6432   89.7572   14.4606 C.3     1  UNL1        0.0217
      7 C          64.9026   90.9484   13.5867 C.3     1  UNL1        0.0934
      8 N          64.3494   90.9909   12.1931 N.am    1  UNL1       -0.2794
      9 C          64.6088   92.1822   11.3192 C.2     1  UNL1        0.2282
     10 O          64.0556   92.2247    9.9256 O.2     1  UNL1       -0.2748
     11 C          63.5369   89.8422   11.6733 C.3     1  UNL1        0.0960
     12 C          65.4213   93.3310   11.8390 C.3     1  UNL1        0.1162
     13 C          66.5858   93.8454   11.0458 C.3     1  UNL1        0.1401
     14 O          67.8167   93.0028   10.8880 O.3     1  UNL1       -0.3517
     15 C          67.9994   92.1650    9.6572 C.3     1  UNL1        0.1741
     16 C          66.5195   95.2026   10.4103 C.3     1  UNL1        0.0990
     17 N          67.5580   95.6135    9.4090 N.3     1  UNL1       -0.2943
     18 C          67.1497   96.3299    8.1560 C.3     1  UNL1        0.0859
     19 H          68.0394   94.7626    9.1181 H       1  UNL1        0.1234
     20 C          61.1754   88.3127    9.9226 C.ar    1  UNL1        0.0257
     21 C          60.2300   89.2770    9.2697 C.ar    1  UNL1        0.1398
     22 F          59.8860   89.1232    7.8177 F       1  UNL1       -0.2042
     23 C          59.6285   90.3950   10.0686 C.ar    1  UNL1        0.0296
     24 C          59.9725   90.5488   11.5205 C.ar    1  UNL1        0.0021
     25 C          60.9180   89.5845   12.1735 C.ar    1  UNL1       -0.0019
     26 C          61.5194   88.4665   11.3745 C.ar    1  UNL1        0.0039
     27 C          61.5255   85.2923    7.3722 C.ar    1  UNL1       -0.0222
     28 C          62.9798   84.9587    7.5258 C.ar    1  UNL1       -0.0043
     29 C          63.8327   85.7431    8.4783 C.ar    1  UNL1       -0.0003
     30 C          63.2313   86.8611    9.2772 C.ar    1  UNL1        0.0000
     31 C          61.7769   87.1947    9.1236 C.ar    1  UNL1        0.0016
     32 C          60.9240   86.4103    8.1712 C.ar    1  UNL1       -0.0042
     33 C          61.2931   83.8559    5.2198 C.3     1  UNL1        0.0050
     34 C          60.6726   84.5078    6.4198 C.3     1  UNL1        0.0264
     35 C          61.6524   86.3535   11.5077 C.3     1  UNL1        0.0330
     36 C          61.7909   84.9951   12.1287 C.3     1  UNL1        0.0241
     37 C          62.5771   83.9269   11.4282 C.3     1  UNL1        0.0928
     38 N          62.7319   82.5745   12.0584 N.am    1  UNL1       -0.2707
     39 C          63.5495   82.4177   13.3062 C.2     1  UNL1        0.4017
     40 O          64.2123   83.6132   13.9238 O.2     1  UNL1       -0.2264
     41 H          62.2969   81.7898   11.6531 H       1  UNL1        0.1527
     42 O          63.7044   81.0653   13.9364 O.3     1  UNL1       -0.4306
     43 C          62.7228   79.9751   13.6231 C.3     1  UNL1        0.2573
@<TRIPOS>BOND
     1    33    34    1
     2    34    27    1
     3    27    28   ar
     4    28    29   ar
     5    29    30   ar
     6    30    31   ar
     7    31    20    1
     8    20    21   ar
     9    21    22    1
    10    21    23   ar
    11    23    24   ar
    12    24    25   ar
    13    25    26   ar
    14    26     1    1
    15     1     2    1
    16     1    35    1
    17    35    36    1
    18    36    37    1
    19    37    38    1
    20    38    39   am
    21    39    40    2
    22    39    42    1
    23    42    43    1
    24     4     1    1
    25     4     5    1
    26     5     6    1
    27     6     7    1
    28     7     8    1
    29     8     9   am
    30     9    10    2
    31     9    12    1
    32    12    13    1
    33    13    16    1
    34    16    17    1
    35    17    18    1
    36    13    14    1
    37    14    15    1
    38     8    11    1
    39    31    32   ar
    40    32    27   ar
    41    26    20   ar
    42    11     4    1
    43     2     3    1
    44    38    41    1
    45    17    19    1
@<TRIPOS>MOLECULE
*****
 43 45 0 0 0
SMALL
GASTEIGER

@<TRIPOS>ATOM
      1 C          61.5952   94.7100    0.0912 C.3     1  UNL1        0.1086
      2 O          60.3256   93.9958   -0.2666 O.3     1  UNL1       -0.3826
      3 H          59.8835   94.4655   -0.9910 H       1  UNL1        0.2107
      4 C          61.8715   93.6871    1.1529 C.3     1  UNL1        0.0485
      5 C          63.1931   92.9783    1.1857 C.3     1  UNL1        0.0061
      6 C          63.4693   91.9554    2.2475 C.3     1  UNL1        0.0217
      7 C          62.4240   91.6411    3.2763 C.3     1  UNL1        0.0934
      8 N          61.1024   92.3499    3.2435 N.am    1  UNL1       -0.2794
      9 C          60.0571   92.0356    4.2724 C.2     1  UNL1        0.2282
     10 O          58.7355   92.7443    4.2395 O.2     1  UNL1       -0.2748
     11 C          60.8261   93.3728    2.1818 C.3     1  UNL1        0.0960
     12 C          60.3334   91.0127    5.3341 C.3     1  UNL1        0.1162
     13 C          59.2173   90.1628    5.8651 C.3     1  UNL1        0.1401
     14 O          57.9436   90.0242    5.0851 O.3     1  UNL1       -0.3517
     15 C          56.8410   91.0250    5.2656 C.3     1  UNL1        0.1741
     16 C          59.3750   89.4513    7.1763 C.3     1  UNL1        0.0990
     17 N          58.6482   88.1625    7.4224 N.3     1  UNL1       -0.2943
     18 C          59.4142   86.8767    7.5217 C.3     1  UNL1        0.0859
     19 H          57.9816   88.0499    6.6587 H       1  UNL1        0.1234
     20 C          63.9810   95.5152   -0.5490 C.ar    1  UNL1        0.0257
     21 C          65.2506   96.2293   -0.1913 C.ar    1  UNL1        0.1398
     22 F          66.3667   96.3203   -1.1893 F       1  UNL1       -0.2042
     23 C          65.4041   96.8526    1.1645 C.ar    1  UNL1        0.0296
     24 C          64.2880   96.7616    2.1625 C.ar    1  UNL1        0.0021
     25 C          63.0183   96.0474    1.8047 C.ar    1  UNL1       -0.0019
     26 C          62.8649   95.4242    0.4490 C.ar    1  UNL1        0.0039
     27 C          63.5000   95.1383   -4.4703 C.ar    1  UNL1       -0.0222
     28 C          63.5204   93.6456   -4.6162 C.ar    1  UNL1       -0.0043
     29 C          63.6944   92.7760   -3.4064 C.ar    1  UNL1       -0.0003
     30 C          63.8479   93.3992   -2.0507 C.ar    1  UNL1        0.0000
     31 C          63.8275   94.8919   -1.9048 C.ar    1  UNL1        0.0016
     32 C          63.6536   95.7615   -3.1146 C.ar    1  UNL1       -0.0042
     33 C          63.3927   95.4057   -7.0524 C.3     1  UNL1        0.0050
     34 C          63.3261   96.0078   -5.6801 C.3     1  UNL1        0.0264
     35 C          61.3189   95.7329   -0.9705 C.3     1  UNL1        0.0330
     36 C          60.0830   96.5793   -0.8930 C.3     1  UNL1        0.0241
     37 C          59.1184   96.6051   -2.0414 C.3     1  UNL1        0.0928
     38 N          58.0120   95.5948   -2.1145 N.am    1  UNL1       -0.2707
     39 C          58.2536   94.2636   -2.7620 C.2     1  UNL1        0.4017
     40 O          59.6016   93.9425   -3.3365 O.2     1  UNL1       -0.2264
     41 H          57.1273   95.8056   -1.7375 H       1  UNL1        0.1527
     42 O          57.1472   93.2533   -2.8351 O.3     1  UNL1       -0.4306
     43 C          56.8781   92.3500   -1.6681 C.3     1  UNL1        0.2573
@<TRIPOS>BOND
     1    33    34    1
     2    34    27    1
     3    27    28   ar
     4    28    29   ar
     5    29    30   ar
     6    30    31   ar
     7    31    20    1
     8    20    21   ar
     9    21    22    1
    10    21    23   ar
    11    23    24   ar
    12    24    25   ar
    13    25    26   ar
    14    26     1    1
    15     1     2    1
    16     1    35    1
    17    35    36    1
    18    36    37    1
    19    37    38    1
    20    38    39   am
    21    39    40    2
    22    39    42    1
    23    42    43    1
    24     4     1    1
    25     4     5    1
    26     5     6    1
    27     6     7    1
    28     7     8    1
    29     8     9   am
    30     9    10    2
    31     9    12    1
    32    12    13    1
    33    13    16    1
    34    16    17    1
    35    17    18    1
    36    13    14    1
    37    14    15    1
    38     8    11    1
    39    31    32   ar
    40    32    27   ar
    41    26    20   ar
    42    11     4    1
    43     2     3    1
    44    38    41    1
    45    17    19    1
@<TRIPOS>MOLECULE
*****
 43 45 0 0 0
SMALL
GASTEIGER

@<TRIPOS>ATOM
      1 C          61.2088   88.7229   11.7499 C.3     1  UNL1        0.1086
      2 O          60.0766   87.7984   12.0869 O.3     1  UNL1       -0.3826
      3 H          59.3773   88.2954   12.5395 H       1  UNL1        0.2107
      4 C          61.9556   87.5810   11.1267 C.3     1  UNL1        0.0485
      5 C          62.4425   87.6864    9.7119 C.3     1  UNL1        0.0061
      6 C          63.1894   86.5445    9.0887 C.3     1  UNL1        0.0217
      7 C          63.4493   85.2972    9.8804 C.3     1  UNL1        0.0934
      8 N          62.9624   85.1919   11.2953 N.am    1  UNL1       -0.2794
      9 C          63.2223   83.9445   12.0869 C.2     1  UNL1        0.2282
     10 O          62.7354   83.8392   13.5018 O.2     1  UNL1       -0.2748
     11 C          62.2156   86.3337   11.9184 C.3     1  UNL1        0.0960
     12 C          63.9692   82.8027   11.4638 C.3     1  UNL1        0.1162
     13 C          63.3156   81.4584   11.3386 C.3     1  UNL1        0.1401
     14 O          63.1392   80.8332    9.9865 O.3     1  UNL1       -0.3517
     15 C          62.8272   79.3705    9.8715 C.3     1  UNL1        0.1741
     16 C          62.8385   80.7392   12.5655 C.3     1  UNL1        0.0990
     17 N          61.6602   81.2635   13.3315 N.3     1  UNL1       -0.2943
     18 C          60.7724   80.3162   14.0827 C.3     1  UNL1        0.0859
     19 H          61.0678   81.7537   12.6614 H       1  UNL1        0.1234
     20 C          63.4266   89.9007   12.4165 C.ar    1  UNL1        0.0257
     21 C          64.5588   90.8250   12.0795 C.ar    1  UNL1        0.1398
     22 F          65.6444   91.0784   13.0831 F       1  UNL1       -0.2042
     23 C          64.6054   91.4961   10.7387 C.ar    1  UNL1        0.0296
     24 C          63.5199   91.2428    9.7350 C.ar    1  UNL1        0.0021
     25 C          62.3876   90.3184   10.0721 C.ar    1  UNL1       -0.0019
     26 C          62.3410   89.6473   11.4128 C.ar    1  UNL1        0.0039
     27 C          63.9020   87.1808   15.2672 C.ar    1  UNL1       -0.0222
     28 C          63.2867   87.8873   16.4385 C.ar    1  UNL1       -0.0043
     29 C          62.7180   89.2650   16.2692 C.ar    1  UNL1       -0.0003
     30 C          62.7646   89.9361   14.9286 C.ar    1  UNL1        0.0000
     31 C          63.3799   89.2296   13.7572 C.ar    1  UNL1        0.0016
     32 C          63.9486   87.8519   13.9265 C.ar    1  UNL1       -0.0042
     33 C          65.6276   85.3602   14.5908 C.3     1  UNL1        0.0050
     34 C          64.4707   85.8031   15.4365 C.3     1  UNL1        0.0264
     35 C          60.4620   89.8647   12.3731 C.3     1  UNL1        0.0330
     36 C          59.4179   90.5978   11.5840 C.3     1  UNL1        0.0241
     37 C          59.3737   90.4622   10.0908 C.3     1  UNL1        0.0928
     38 N          59.3510   89.1007    9.4617 N.am    1  UNL1       -0.2707
     39 C          59.5142   88.9574    7.9775 C.2     1  UNL1        0.4017
     40 O          59.7001   90.1757    7.1224 O.2     1  UNL1       -0.2264
     41 H          59.2290   88.3010   10.0229 H       1  UNL1        0.1527
     42 O          59.4915   87.5959    7.3484 O.3     1  UNL1       -0.4306
     43 C          59.5491   86.3701    8.2111 C.3     1  UNL1        0.2573
@<TRIPOS>BOND
     1    33    34    1
     2    34    27    1
     3    27    28   ar
     4    28    29   ar
     5    29    30   ar
     6    30    31   ar
     7    31    20    1
     8    20    21   ar
     9    21    22    1
    10    21    23   ar
    11    23    24   ar
    12    24    25   ar
    13    25    26   ar
    14    26     1    1
    15     1     2    1
    16     1    35    1
    17    35    36    1
    18    36    37    1
    19    37    38    1
    20    38    39   am
    21    39    40    2
    22    39    42    1
    23    42    43    1
    24     4     1    1
    25     4     5    1
    26     5     6    1
    27     6     7    1
    28     7     8    1
    29     8     9   am
    30     9    10    2
    31     9    12    1
    32    12    13    1
    33    13    16    1
    34    16    17    1
    35    17    18    1
    36    13    14    1
    37    14    15    1
    38     8    11    1
    39    31    32   ar
    40    32    27   ar
    41    26    20   ar
    42    11     4    1
    43     2     3    1
    44    38    41    1
    45    17    19    1
@<TRIPOS>MOLECULE
*****
 43 45 0 0 0
SMALL
GASTEIGER

@<TRIPOS>ATOM
      1 C          62.4032   89.4685   10.5871 C.3     1  UNL1        0.1086
      2 O          63.6131   89.5039    9.7013 O.3     1  UNL1       -0.3826
      3 H          63.9507   90.4119    9.6511 H       1  UNL1        0.2107
      4 C          62.2773   87.9918   10.3562 C.3     1  UNL1        0.0485
      5 C          61.9639   87.4711    8.9849 C.3     1  UNL1        0.0061
      6 C          61.8380   85.9943    8.7540 C.3     1  UNL1        0.0217
      7 C          62.0256   85.0382    9.8945 C.3     1  UNL1        0.0934
      8 N          62.3390   85.5589   11.2659 N.am    1  UNL1       -0.2794
      9 C          62.5266   84.6027   12.4064 C.2     1  UNL1        0.2282
     10 O          62.8400   85.1234   13.7777 O.2     1  UNL1       -0.2748
     11 C          62.4649   87.0356   11.4967 C.3     1  UNL1        0.0960
     12 C          62.4007   83.1260   12.1755 C.3     1  UNL1        0.1162
     13 C          63.5575   82.2190   12.4739 C.3     1  UNL1        0.1401
     14 O          64.7843   82.2597   11.6119 O.3     1  UNL1       -0.3517
     15 C          64.6732   82.6468   10.1669 C.3     1  UNL1        0.1741
     16 C          63.4874   81.2712   13.6345 C.3     1  UNL1        0.0990
     17 N          62.3313   81.3371   14.5879 N.3     1  UNL1       -0.2943
     18 C          60.9825   80.8337   14.1669 C.3     1  UNL1        0.0859
     19 H          62.2136   82.3182   14.8407 H       1  UNL1        0.1234
     20 C          61.3527   89.4949   12.9632 C.ar    1  UNL1        0.0257
     21 C          60.1428   89.4594   13.8491 C.ar    1  UNL1        0.1398
     22 F          60.3023   89.5212   15.3393 F       1  UNL1       -0.2042
     23 C          58.7733   89.3622   13.2448 C.ar    1  UNL1        0.0296
     24 C          58.6138   89.3004   11.7546 C.ar    1  UNL1        0.0021
     25 C          59.8238   89.3359   10.8687 C.ar    1  UNL1       -0.0019
     26 C          61.1932   89.4331   11.4730 C.ar    1  UNL1        0.0039
     27 C          64.7584   91.0261   14.3074 C.ar    1  UNL1       -0.0222
     28 C          65.4610   89.7866   14.7761 C.ar    1  UNL1       -0.0043
     29 C          64.7943   88.4498   14.6405 C.ar    1  UNL1       -0.0003
     30 C          63.4249   88.3525   14.0362 C.ar    1  UNL1        0.0000
     31 C          62.7222   89.5921   13.5676 C.ar    1  UNL1        0.0016
     32 C          63.3889   90.9289   13.7032 C.ar    1  UNL1       -0.0042
     33 C          66.6893   92.4932   15.2398 C.3     1  UNL1        0.0050
     34 C          65.4251   92.3630   14.4430 C.3     1  UNL1        0.0264
     35 C          62.5291   90.9452   10.8180 C.3     1  UNL1        0.0330
     36 C          63.5671   91.7345   10.0767 C.3     1  UNL1        0.0241
     37 C          64.6517   92.4432   10.8325 C.3     1  UNL1        0.0928
     38 N          65.6058   93.3447   10.1065 N.am    1  UNL1       -0.2707
     39 C          67.0618   93.3420   10.4669 C.2     1  UNL1        0.4017
     40 O          67.5638   92.4378   11.5534 O.2     1  UNL1       -0.2264
     41 H          65.2764   93.9381    9.3934 H       1  UNL1        0.1527
     42 O          68.0159   94.2434    9.7409 O.3     1  UNL1       -0.4306
     43 C          67.4905   95.3374    8.8591 C.3     1  UNL1        0.2573
@<TRIPOS>BOND
     1    33    34    1
     2    34    27    1
     3    27    28   ar
     4    28    29   ar
     5    29    30   ar
     6    30    31   ar
     7    31    20    1
     8    20    21   ar
     9    21    22    1
    10    21    23   ar
    11    23    24   ar
    12    24    25   ar
    13    25    26   ar
    14    26     1    1
    15     1     2    1
    16     1    35    1
    17    35    36    1
    18    36    37    1
    19    37    38    1
    20    38    39   am
    21    39    40    2
    22    39    42    1
    23    42    43    1
    24     4     1    1
    25     4     5    1
    26     5     6    1
    27     6     7    1
    28     7     8    1
    29     8     9   am
    30     9    10    2
    31     9    12    1
    32    12    13    1
    33    13    16    1
    34    16    17    1
    35    17    18    1
    36    13    14    1
    37    14    15    1
    38     8    11    1
    39    31    32   ar
    40    32    27   ar
    41    26    20   ar
    42    11     4    1
    43     2     3    1
    44    38    41    1
    45    17    19    1
