@<TRIPOS>MOLECULE
*****
 20 22 0 0 0
SMALL
GASTEIGER

@<TRIPOS>ATOM
      1 C          63.5177   90.5952   12.5245 C.ar    1  UNL1        0.1660
      2 C          62.6920   90.7752   11.2853 C.ar    1  UNL1        0.0392
      3 C          62.1047   89.5799   10.5951 C.ar    1  UNL1        0.0033
      4 C          62.3432   88.2046   11.1441 C.ar    1  UNL1        0.0032
      5 C          61.7559   87.0093   10.4539 C.ar    1  UNL1        0.0001
      6 C          61.9944   85.6339   11.0029 C.ar    1  UNL1        0.0009
      7 C          62.8202   85.4538   12.2422 C.ar    1  UNL1        0.0122
      8 C          63.4074   86.6491   12.9324 C.ar    1  UNL1        0.0599
      9 CL         64.2332   86.4690   14.1716 Cl      1  UNL1       -0.0822
     10 C          63.1689   88.0245   12.3833 C.ar    1  UNL1        0.0411
     11 C          63.7562   89.2198   13.0735 C.ar    1  UNL1        0.1746
     12 F          64.5820   89.0397   14.3128 F       1  UNL1       -0.2009
     13 C          63.0586   84.0784   12.7912 C.ar    1  UNL1        0.0200
     14 C          63.9762   83.1332   12.0738 C.ar    1  UNL1        0.0032
     15 C          64.2147   81.7578   12.6228 C.ar    1  UNL1        0.0207
     16 C          63.5356   81.3276   13.8892 C.ar    1  UNL1        0.0989
     17 N          62.6180   82.2728   14.6066 N.ar    1  UNL1       -0.2423
     18 C          62.3795   83.6482   14.0576 C.ar    1  UNL1        0.0989
     19 C          65.4029   92.3703   12.7360 C.3     1  UNL1        0.2526
     20 O          64.1050   91.7905   13.2147 O.3     1  UNL1       -0.4692
@<TRIPOS>BOND
     1    19    20    1
     2    20     1    1
     3     1     2   ar
     4     2     3   ar
     5     3     4   ar
     6     4     5   ar
     7     5     6   ar
     8     6     7   ar
     9     7    13    1
    10    13    14   ar
    11    14    15   ar
    12    15    16   ar
    13    16    17   ar
    14    17    18   ar
    15     7     8   ar
    16     8     9    1
    17     8    10   ar
    18    10    11   ar
    19    11    12    1
    20    11     1   ar
    21    10     4   ar
    22    18    13   ar
@<TRIPOS>MOLECULE
*****
 20 22 0 0 0
SMALL
GASTEIGER

@<TRIPOS>ATOM
      1 C          61.4533   87.2966    9.7572 C.ar    1  UNL1        0.1660
      2 C          61.6596   85.8982   10.2590 C.ar    1  UNL1        0.0392
      3 C          62.4127   85.6625   11.5346 C.ar    1  UNL1        0.0033
      4 C          62.9597   86.8252   12.3085 C.ar    1  UNL1        0.0032
      5 C          63.7128   86.5894   13.5841 C.ar    1  UNL1        0.0001
      6 C          64.2597   87.7522   14.3579 C.ar    1  UNL1        0.0009
      7 C          64.0535   89.1507   13.8562 C.ar    1  UNL1        0.0122
      8 C          63.3003   89.3864   12.5806 C.ar    1  UNL1        0.0599
      9 CL         63.0941   90.7849   12.0789 Cl      1  UNL1       -0.0822
     10 C          62.7534   88.2236   11.8067 C.ar    1  UNL1        0.0411
     11 C          62.0002   88.4593   10.5311 C.ar    1  UNL1        0.1746
     12 F          61.7940   89.8579   10.0294 F       1  UNL1       -0.2009
     13 C          64.6004   90.3134   14.6301 C.ar    1  UNL1        0.0200
     14 C          65.9172   90.9190   14.2435 C.ar    1  UNL1        0.0032
     15 C          66.4641   92.0817   15.0173 C.ar    1  UNL1        0.0207
     16 C          65.6943   92.6389   16.1779 C.ar    1  UNL1        0.0989
     17 N          64.3776   92.0334   16.5645 N.ar    1  UNL1       -0.2423
     18 C          63.8306   90.8707   15.7906 C.ar    1  UNL1        0.0989
     19 C          59.4620   86.7396    8.1843 C.3     1  UNL1        0.2526
     20 O          60.7002   87.5323    8.4816 O.3     1  UNL1       -0.4692
@<TRIPOS>BOND
     1    19    20    1
     2    20     1    1
     3     1     2   ar
     4     2     3   ar
     5     3     4   ar
     6     4     5   ar
     7     5     6   ar
     8     6     7   ar
     9     7    13    1
    10    13    14   ar
    11    14    15   ar
    12    15    16   ar
    13    16    17   ar
    14    17    18   ar
    15     7     8   ar
    16     8     9    1
    17     8    10   ar
    18    10    11   ar
    19    11    12    1
    20    11     1   ar
    21    10     4   ar
    22    18    13   ar
@<TRIPOS>MOLECULE
*****
 20 22 0 0 0
SMALL
GASTEIGER

@<TRIPOS>ATOM
      1 C          62.5287   85.0941   11.6350 C.ar    1  UNL1        0.1660
      2 C          61.8845   85.6857   10.4165 C.ar    1  UNL1        0.0392
      3 C          61.8909   87.1716   10.2113 C.ar    1  UNL1        0.0033
      4 C          62.5416   88.0659   11.2246 C.ar    1  UNL1        0.0032
      5 C          62.5481   89.5517   11.0194 C.ar    1  UNL1        0.0001
      6 C          63.1988   90.4460   12.0327 C.ar    1  UNL1        0.0009
      7 C          63.8431   89.8543   13.2513 C.ar    1  UNL1        0.0122
      8 C          63.8366   88.3685   13.4565 C.ar    1  UNL1        0.0599
      9 CL         64.4809   87.7768   14.6751 Cl      1  UNL1       -0.0822
     10 C          63.1859   87.4742   12.4431 C.ar    1  UNL1        0.0411
     11 C          63.1794   85.9883   12.6483 C.ar    1  UNL1        0.1746
     12 F          63.8237   85.3967   13.8669 F       1  UNL1       -0.2009
     13 C          64.4938   90.7486   14.2647 C.ar    1  UNL1        0.0200
     14 C          65.8695   91.2910   14.0128 C.ar    1  UNL1        0.0032
     15 C          66.5202   92.1852   15.0262 C.ar    1  UNL1        0.0207
     16 C          65.7953   92.5371   16.2913 C.ar    1  UNL1        0.0989
     17 N          64.4197   91.9947   16.5432 N.ar    1  UNL1       -0.2423
     18 C          63.7689   91.1005   15.5298 C.ar    1  UNL1        0.0989
     19 C          63.7332   82.7969   11.4862 C.3     1  UNL1        0.2526
     20 O          62.5223   83.6082   11.8402 O.3     1  UNL1       -0.4692
@<TRIPOS>BOND
     1    19    20    1
     2    20     1    1
     3     1     2   ar
     4     2     3   ar
     5     3     4   ar
     6     4     5   ar
     7     5     6   ar
     8     6     7   ar
     9     7    13    1
    10    13    14   ar
    11    14    15   ar
    12    15    16   ar
    13    16    17   ar
    14    17    18   ar
    15     7     8   ar
    16     8     9    1
    17     8    10   ar
    18    10    11   ar
    19    11    12    1
    20    11     1   ar
    21    10     4   ar
    22    18    13   ar
@<TRIPOS>MOLECULE
*****
 20 22 0 0 0
SMALL
GASTEIGER

@<TRIPOS>ATOM
      1 C          66.2863   93.8883   12.3360 C.ar    1  UNL1        0.1660
      2 C          66.7301   93.5377   13.7253 C.ar    1  UNL1        0.0392
      3 C          66.1829   92.3158   14.4016 C.ar    1  UNL1        0.0033
      4 C          65.1919   91.4443   13.6886 C.ar    1  UNL1        0.0032
      5 C          64.6447   90.2224   14.3648 C.ar    1  UNL1        0.0001
      6 C          63.6537   89.3509   13.6518 C.ar    1  UNL1        0.0009
      7 C          63.2098   89.7014   12.2625 C.ar    1  UNL1        0.0122
      8 C          63.7570   90.9234   11.5862 C.ar    1  UNL1        0.0599
      9 CL         63.3132   91.2739   10.1970 Cl      1  UNL1       -0.0822
     10 C          64.7481   91.7949   12.2993 C.ar    1  UNL1        0.0411
     11 C          65.2953   93.0168   11.6230 C.ar    1  UNL1        0.1746
     12 F          64.8514   93.3674   10.2337 F       1  UNL1       -0.2009
     13 C          62.2188   88.8300   11.5495 C.ar    1  UNL1        0.0200
     14 C          62.5623   87.4035   11.2377 C.ar    1  UNL1        0.0032
     15 C          61.5712   86.5320   10.5247 C.ar    1  UNL1        0.0207
     16 C          60.2367   87.0870   10.1235 C.ar    1  UNL1        0.0989
     17 N          59.8931   88.5135   10.4353 N.ar    1  UNL1       -0.2423
     18 C          60.8842   89.3850   11.1483 C.ar    1  UNL1        0.0989
     19 C          65.9537   96.3059   11.4448 C.3     1  UNL1        0.2526
     20 O          66.8335   95.1103   11.6598 O.3     1  UNL1       -0.4692
@<TRIPOS>BOND
     1    19    20    1
     2    20     1    1
     3     1     2   ar
     4     2     3   ar
     5     3     4   ar
     6     4     5   ar
     7     5     6   ar
     8     6     7   ar
     9     7    13    1
    10    13    14   ar
    11    14    15   ar
    12    15    16   ar
    13    16    17   ar
    14    17    18   ar
    15     7     8   ar
    16     8     9    1
    17     8    10   ar
    18    10    11   ar
    19    11    12    1
    20    11     1   ar
    21    10     4   ar
    22    18    13   ar
@<TRIPOS>MOLECULE
*****
 20 22 0 0 0
SMALL
GASTEIGER

@<TRIPOS>ATOM
      1 C          63.2039   89.7040   12.2059 C.ar    1  UNL1        0.1660
      2 C          64.0130   90.1278   13.3957 C.ar    1  UNL1        0.0392
      3 C          64.4960   89.1023   14.3781 C.ar    1  UNL1        0.0033
      4 C          64.1699   87.6530   14.1707 C.ar    1  UNL1        0.0032
      5 C          64.6529   86.6275   15.1530 C.ar    1  UNL1        0.0001
      6 C          64.3267   85.1782   14.9456 C.ar    1  UNL1        0.0009
      7 C          63.5176   84.7543   13.7557 C.ar    1  UNL1        0.0122
      8 C          63.0346   85.7798   12.7734 C.ar    1  UNL1        0.0599
      9 CL         62.2255   85.3560   11.5836 Cl      1  UNL1       -0.0822
     10 C          63.3607   87.2292   12.9809 C.ar    1  UNL1        0.0411
     11 C          62.8778   88.2547   11.9985 C.ar    1  UNL1        0.1746
     12 F          62.0686   87.8308   10.8086 F       1  UNL1       -0.2009
     13 C          63.1914   83.3050   13.5483 C.ar    1  UNL1        0.0200
     14 C          62.1651   82.6358   14.4138 C.ar    1  UNL1        0.0032
     15 C          61.8390   81.1865   14.2064 C.ar    1  UNL1        0.0207
     16 C          62.5391   80.4063   13.1335 C.ar    1  UNL1        0.0989
     17 N          63.5654   81.0754   12.2680 N.ar    1  UNL1       -0.2423
     18 C          63.8916   82.5247   12.4754 C.ar    1  UNL1        0.0989
     19 C          63.7029   91.6340   10.5397 C.3     1  UNL1        0.2526
     20 O          62.7209   90.7295   11.2235 O.3     1  UNL1       -0.4692
@<TRIPOS>BOND
     1    19    20    1
     2    20     1    1
     3     1     2   ar
     4     2     3   ar
     5     3     4   ar
     6     4     5   ar
     7     5     6   ar
     8     6     7   ar
     9     7    13    1
    10    13    14   ar
    11    14    15   ar
    12    15    16   ar
    13    16    17   ar
    14    17    18   ar
    15     7     8   ar
    16     8     9    1
    17     8    10   ar
    18    10    11   ar
    19    11    12    1
    20    11     1   ar
    21    10     4   ar
    22    18    13   ar
@<TRIPOS>MOLECULE
*****
 20 22 0 0 0
SMALL
GASTEIGER

@<TRIPOS>ATOM
      1 C          64.6195   91.2219   13.5006 C.ar    1  UNL1        0.1660
      2 C          64.9957   90.2482   14.5777 C.ar    1  UNL1        0.0392
      3 C          64.5715   88.8132   14.4731 C.ar    1  UNL1        0.0033
      4 C          63.7712   88.3520   13.2912 C.ar    1  UNL1        0.0032
      5 C          63.3470   86.9170   13.1866 C.ar    1  UNL1        0.0001
      6 C          62.5467   86.4558   12.0047 C.ar    1  UNL1        0.0009
      7 C          62.1706   87.4296   10.9275 C.ar    1  UNL1        0.0122
      8 C          62.5947   88.8646   11.0322 C.ar    1  UNL1        0.0599
      9 CL         62.2186   89.8383    9.9551 Cl      1  UNL1       -0.0822
     10 C          63.3951   89.3258   12.2141 C.ar    1  UNL1        0.0411
     11 C          63.8192   90.7607   12.3188 C.ar    1  UNL1        0.1746
     12 F          63.4430   91.7345   11.2416 F       1  UNL1       -0.2009
     13 C          61.3703   86.9684    9.7457 C.ar    1  UNL1        0.0200
     14 C          61.9918   86.0583    8.7280 C.ar    1  UNL1        0.0032
     15 C          61.1915   85.5971    7.5462 C.ar    1  UNL1        0.0207
     16 C          59.7697   86.0459    7.3819 C.ar    1  UNL1        0.0989
     17 N          59.1481   86.9560    8.3995 N.ar    1  UNL1       -0.2423
     18 C          59.9484   87.4172    9.5814 C.ar    1  UNL1        0.0989
     19 C          66.1067   93.1932   12.6931 C.3     1  UNL1        0.2526
     20 O          65.0437   92.6569   13.6053 O.3     1  UNL1       -0.4692
@<TRIPOS>BOND
     1    19    20    1
     2    20     1    1
     3     1     2   ar
     4     2     3   ar
     5     3     4   ar
     6     4     5   ar
     7     5     6   ar
     8     6     7   ar
     9     7    13    1
    10    13    14   ar
    11    14    15   ar
    12    15    16   ar
    13    16    17   ar
    14    17    18   ar
    15     7     8   ar
    16     8     9    1
    17     8    10   ar
    18    10    11   ar
    19    11    12    1
    20    11     1   ar
    21    10     4   ar
    22    18    13   ar
@<TRIPOS>MOLECULE
*****
 20 22 0 0 0
SMALL
GASTEIGER

@<TRIPOS>ATOM
      1 C          61.8085   88.9656   11.3350 C.ar    1  UNL1        0.1660
      2 C          61.6546   89.7866   10.0892 C.ar    1  UNL1        0.0392
      3 C          62.5598   90.9577    9.8461 C.ar    1  UNL1        0.0033
      4 C          63.6190   91.3077   10.8489 C.ar    1  UNL1        0.0032
      5 C          64.5243   92.4787   10.6058 C.ar    1  UNL1        0.0001
      6 C          65.5835   92.8287   11.6085 C.ar    1  UNL1        0.0009
      7 C          65.7375   92.0076   12.8545 C.ar    1  UNL1        0.0122
      8 C          64.8322   90.8366   13.0975 C.ar    1  UNL1        0.0599
      9 CL         64.9861   90.0155   14.3433 Cl      1  UNL1       -0.0822
     10 C          63.7730   90.4866   12.0947 C.ar    1  UNL1        0.0411
     11 C          62.8677   89.3155   12.3378 C.ar    1  UNL1        0.1746
     12 F          63.0216   88.4945   13.5837 F       1  UNL1       -0.2009
     13 C          66.7967   92.3576   13.8572 C.ar    1  UNL1        0.0200
     14 C          66.4127   92.9749   15.1693 C.ar    1  UNL1        0.0032
     15 C          67.4719   93.3249   16.1721 C.ar    1  UNL1        0.0207
     16 C          68.9151   93.0576   15.8628 C.ar    1  UNL1        0.0989
     17 N          69.2992   92.4404   14.5507 N.ar    1  UNL1       -0.2423
     18 C          68.2399   92.0904   13.5479 C.ar    1  UNL1        0.0989
     19 C          61.2632   86.4430   11.0361 C.3     1  UNL1        0.2526
     20 O          60.9032   87.7945   11.5781 O.3     1  UNL1       -0.4692
@<TRIPOS>BOND
     1    19    20    1
     2    20     1    1
     3     1     2   ar
     4     2     3   ar
     5     3     4   ar
     6     4     5   ar
     7     5     6   ar
     8     6     7   ar
     9     7    13    1
    10    13    14   ar
    11    14    15   ar
    12    15    16   ar
    13    16    17   ar
    14    17    18   ar
    15     7     8   ar
    16     8     9    1
    17     8    10   ar
    18    10    11   ar
    19    11    12    1
    20    11     1   ar
    21    10     4   ar
    22    18    13   ar
@<TRIPOS>MOLECULE
*****
 20 22 0 0 0
SMALL
GASTEIGER

@<TRIPOS>ATOM
      1 C          63.7351   82.9747   13.2161 C.ar    1  UNL1        0.1660
      2 C          64.6039   82.2251   12.2501 C.ar    1  UNL1        0.0392
      3 C          64.6000   82.5935   10.7961 C.ar    1  UNL1        0.0033
      4 C          63.7272   83.7116   10.3080 C.ar    1  UNL1        0.0032
      5 C          63.7233   84.0800    8.8540 C.ar    1  UNL1        0.0001
      6 C          62.8506   85.1981    8.3660 C.ar    1  UNL1        0.0009
      7 C          61.9818   85.9478    9.3320 C.ar    1  UNL1        0.0122
      8 C          61.9857   85.5794   10.7860 C.ar    1  UNL1        0.0599
      9 CL         61.1169   86.3290   11.7520 Cl      1  UNL1       -0.0822
     10 C          62.8585   84.4612   11.2740 C.ar    1  UNL1        0.0411
     11 C          62.8624   84.0928   12.7281 C.ar    1  UNL1        0.1746
     12 F          61.9936   84.8425   13.6941 F       1  UNL1       -0.2009
     13 C          61.1091   87.0659    8.8439 C.ar    1  UNL1        0.0200
     14 C          59.9951   86.7820    7.8802 C.ar    1  UNL1        0.0032
     15 C          59.1224   87.9001    7.3922 C.ar    1  UNL1        0.0207
     16 C          59.3636   89.3021    7.8678 C.ar    1  UNL1        0.0989
     17 N          60.4774   89.5860    8.8315 N.ar    1  UNL1       -0.2423
     18 C          61.3502   88.4679    9.3196 C.ar    1  UNL1        0.0989
     19 C          63.8722   83.6749   15.7143 C.3     1  UNL1        0.2526
     20 O          63.7391   82.6063   14.6702 O.3     1  UNL1       -0.4692
@<TRIPOS>BOND
     1    19    20    1
     2    20     1    1
     3     1     2   ar
     4     2     3   ar
     5     3     4   ar
     6     4     5   ar
     7     5     6   ar
     8     6     7   ar
     9     7    13    1
    10    13    14   ar
    11    14    15   ar
    12    15    16   ar
    13    16    17   ar
    14    17    18   ar
    15     7     8   ar
    16     8     9    1
    17     8    10   ar
    18    10    11   ar
    19    11    12    1
    20    11     1   ar
    21    10     4   ar
    22    18    13   ar
@<TRIPOS>MOLECULE
*****
 20 22 0 0 0
SMALL
GASTEIGER

@<TRIPOS>ATOM
      1 C          63.5106   83.2343   12.6971 C.ar    1  UNL1        0.1660
      2 C          62.7717   83.4227   11.4054 C.ar    1  UNL1        0.0392
      3 C          62.4229   84.8038   10.9354 C.ar    1  UNL1        0.0033
      4 C          62.8131   85.9965   11.7570 C.ar    1  UNL1        0.0032
      5 C          62.4643   87.3776   11.2869 C.ar    1  UNL1        0.0001
      6 C          62.8544   88.5703   12.1086 C.ar    1  UNL1        0.0009
      7 C          63.5934   88.3820   13.4003 C.ar    1  UNL1        0.0122
      8 C          63.9421   87.0009   13.8704 C.ar    1  UNL1        0.0599
      9 CL         64.6811   86.8125   15.1621 Cl      1  UNL1       -0.0822
     10 C          63.5520   85.8081   13.0487 C.ar    1  UNL1        0.0411
     11 C          63.9007   84.4270   13.5187 C.ar    1  UNL1        0.1746
     12 F          64.6397   84.2387   14.8105 F       1  UNL1       -0.2009
     13 C          63.9835   89.5747   14.2220 C.ar    1  UNL1        0.0200
     14 C          63.4253   89.7490   15.6034 C.ar    1  UNL1        0.0032
     15 C          63.8155   90.9417   16.4250 C.ar    1  UNL1        0.0207
     16 C          64.7638   91.9603   15.8653 C.ar    1  UNL1        0.0989
     17 N          65.3220   91.7861   14.4840 N.ar    1  UNL1       -0.2423
     18 C          64.9318   90.5933   13.6623 C.ar    1  UNL1        0.0989
     19 C          62.8087   80.7831   13.1960 C.3     1  UNL1        0.2526
     20 O          63.8594   81.8532   13.1671 O.3     1  UNL1       -0.4692
@<TRIPOS>BOND
     1    19    20    1
     2    20     1    1
     3     1     2   ar
     4     2     3   ar
     5     3     4   ar
     6     4     5   ar
     7     5     6   ar
     8     6     7   ar
     9     7    13    1
    10    13    14   ar
    11    14    15   ar
    12    15    16   ar
    13    16    17   ar
    14    17    18   ar
    15     7     8   ar
    16     8     9    1
    17     8    10   ar
    18    10    11   ar
    19    11    12    1
    20    11     1   ar
    21    10     4   ar
    22    18    13   ar
