@<TRIPOS>MOLECULE
*****
 28 29 0 0 0
SMALL
GASTEIGER

@<TRIPOS>ATOM
      1 C          62.7427   85.7360   12.1148 C.ar    1  UNL1        0.1203
      2 N          63.5079   86.2243   13.3090 N.ar    1  UNL1       -0.2310
      3 C          63.6365   87.7148   13.1995 C.ar    1  UNL1        0.0983
      4 C          64.2894   88.7336   14.0858 C.ar    1  UNL1        0.0206
      5 C          64.2565   90.1854   13.7102 C.ar    1  UNL1        0.0017
      6 C          63.5708   90.6184   12.4483 C.ar    1  UNL1        0.0016
      7 C          62.9179   89.5995   11.5620 C.ar    1  UNL1        0.0188
      8 C          62.9507   88.1477   11.9376 C.ar    1  UNL1        0.0786
      9 N          62.3983   86.9248   11.2672 N.ar    1  UNL1       -0.3134
     10 C          64.9095   91.2044   14.5965 C.2     1  UNL1        0.0048
     11 C          66.3914   91.4239   14.5218 C.2     1  UNL1        0.0598
     12 C          67.0443   92.4428   15.4081 C.2     1  UNL1        0.2679
     13 O          66.4148   92.8099   16.7192 O.2     1  UNL1       -0.2681
     14 N          68.3267   93.0947   14.9833 N.am    1  UNL1       -0.1934
     15 O          68.9796   94.1136   15.8696 O.3     1  UNL1       -0.2949
     16 H          68.7399   92.8538   14.1228 H       1  UNL1        0.1825
     17 H          68.4473   94.2330   16.6716 H       1  UNL1        0.2414
     18 C          62.3846   84.3095   11.8199 C.3     1  UNL1        0.0639
     19 C          63.3365   83.4406   11.0526 C.3     1  UNL1        0.0079
     20 C          63.8856   82.1936   11.6799 C.3     1  UNL1        0.0005
     21 C          62.9726   81.0434   11.9861 C.3     1  UNL1        0.0000
     22 C          61.5327   81.3745   14.1232 C.3     1  UNL1        0.0000
     23 C          62.6620   80.6912   13.4107 C.3     1  UNL1        0.0000
     24 C          61.6355   86.8957    9.9760 C.3     1  UNL1        0.1245
     25 C          60.2956   87.5630    9.8813 C.3     1  UNL1        0.0970
     26 N          59.6700   87.8023    8.5391 N.3     1  UNL1       -0.2687
     27 C          59.7297   89.1655    7.9161 C.3     1  UNL1        0.0897
     28 C          58.9847   86.6784    7.8199 C.3     1  UNL1        0.0897
@<TRIPOS>BOND
     1    22    23    1
     2    23    21    1
     3    21    20    1
     4    20    19    1
     5    19    18    1
     6    18     1    1
     7     1     2   ar
     8     2     3   ar
     9     3     4   ar
    10     4     5   ar
    11     5    10    1
    12    10    11    2
    13    11    12    1
    14    12    13    2
    15    12    14   am
    16    14    15    1
    17     5     6   ar
    18     6     7   ar
    19     7     8   ar
    20     8     9   ar
    21     9    24    1
    22    24    25    1
    23    25    26    1
    24    26    27    1
    25    26    28    1
    26     9     1   ar
    27     8     3   ar
    28    14    16    1
    29    15    17    1
@<TRIPOS>MOLECULE
*****
 28 29 0 0 0
SMALL
GASTEIGER

@<TRIPOS>ATOM
      1 C          64.0691   89.0397   13.9411 C.ar    1  UNL1        0.1203
      2 N          64.2409   87.6633   14.5118 N.ar    1  UNL1       -0.2310
      3 C          63.6598   86.6816   13.5378 C.ar    1  UNL1        0.0983
      4 C          63.5455   85.1863   13.5672 C.ar    1  UNL1        0.0206
      5 C          62.9003   84.4608   12.4239 C.ar    1  UNL1        0.0017
      6 C          62.3693   85.2306   11.2511 C.ar    1  UNL1        0.0016
      7 C          62.4836   86.7259   11.2217 C.ar    1  UNL1        0.0188
      8 C          63.1288   87.4515   12.3650 C.ar    1  UNL1        0.0786
      9 N          63.3817   88.9088   12.6142 N.ar    1  UNL1       -0.3134
     10 C          62.7860   82.9654   12.4533 C.2     1  UNL1        0.0048
     11 C          62.9278   82.1773   11.1850 C.2     1  UNL1        0.0598
     12 C          62.8136   80.6819   11.2144 C.2     1  UNL1        0.2679
     13 O          62.6322   79.9692   12.5217 O.2     1  UNL1       -0.2681
     14 N          62.8807   79.8993    9.9365 N.am    1  UNL1       -0.1934
     15 O          62.7664   78.4040    9.9660 O.3     1  UNL1       -0.2949
     16 H          62.9997   80.3671    9.0785 H       1  UNL1        0.1825
     17 H          62.6543   78.1063   10.8824 H       1  UNL1        0.2414
     18 C          64.5076   90.3220   14.5842 C.3     1  UNL1        0.0639
     19 C          65.7855   90.9784   14.1532 C.3     1  UNL1        0.0079
     20 C          65.8358   92.4645   13.9554 C.3     1  UNL1        0.0005
     21 C          66.7636   93.3008   14.7860 C.3     1  UNL1        0.0000
     22 C          68.8147   92.5250   16.1792 C.3     1  UNL1        0.0000
     23 C          67.3364   92.7478   16.0572 C.3     1  UNL1        0.0000
     24 C          63.0122   90.0372   11.6976 C.3     1  UNL1        0.1245
     25 C          61.6115   90.5735   11.6951 C.3     1  UNL1        0.0970
     26 N          60.4959   89.7550   11.1158 N.3     1  UNL1       -0.2687
     27 C          59.3894   89.2624   12.0006 C.3     1  UNL1        0.0897
     28 C          60.4869   89.4290    9.6517 C.3     1  UNL1        0.0897
@<TRIPOS>BOND
     1    22    23    1
     2    23    21    1
     3    21    20    1
     4    20    19    1
     5    19    18    1
     6    18     1    1
     7     1     2   ar
     8     2     3   ar
     9     3     4   ar
    10     4     5   ar
    11     5    10    1
    12    10    11    2
    13    11    12    1
    14    12    13    2
    15    12    14   am
    16    14    15    1
    17     5     6   ar
    18     6     7   ar
    19     7     8   ar
    20     8     9   ar
    21     9    24    1
    22    24    25    1
    23    25    26    1
    24    26    27    1
    25    26    28    1
    26     9     1   ar
    27     8     3   ar
    28    14    16    1
    29    15    17    1
@<TRIPOS>MOLECULE
*****
 28 29 0 0 0
SMALL
GASTEIGER

@<TRIPOS>ATOM
      1 C          63.0831   88.0786   12.3374 C.ar    1  UNL1        0.1203
      2 N          62.3985   89.2037   11.6193 N.ar    1  UNL1       -0.2310
      3 C          61.5856   88.6154   10.5044 C.ar    1  UNL1        0.0983
      4 C          60.7030   89.2429    9.4665 C.ar    1  UNL1        0.0206
      5 C          60.0026   88.3818    8.4577 C.ar    1  UNL1        0.0017
      6 C          60.1846   86.8932    8.4867 C.ar    1  UNL1        0.0016
      7 C          61.0671   86.2657    9.5246 C.ar    1  UNL1        0.0188
      8 C          61.7676   87.1268   10.5335 C.ar    1  UNL1        0.0786
      9 N          62.6931   86.7951   11.6663 N.ar    1  UNL1       -0.3134
     10 C          59.1200   89.0094    7.4197 C.2     1  UNL1        0.0048
     11 C          59.6518   90.1079    6.5477 C.2     1  UNL1        0.0598
     12 C          58.7692   90.7354    5.5097 C.2     1  UNL1        0.2679
     13 O          59.3654   91.6135    4.4498 O.2     1  UNL1       -0.2681
     14 N          57.2905   90.4848    5.5317 N.am    1  UNL1       -0.1934
     15 O          56.4080   91.1123    4.4938 O.3     1  UNL1       -0.2949
     16 H          56.8992   89.9085    6.2274 H       1  UNL1        0.1825
     17 H          56.9481   91.6449    3.8892 H       1  UNL1        0.2414
     18 C          63.9970   88.2135   13.5192 C.3     1  UNL1        0.0639
     19 C          63.8727   89.3970   14.4323 C.3     1  UNL1        0.0079
     20 C          64.9262   90.4648   14.4238 C.3     1  UNL1        0.0005
     21 C          65.0037   91.4327   13.2805 C.3     1  UNL1        0.0000
     22 C          67.5430   91.9457   13.4770 C.3     1  UNL1        0.0000
     23 C          66.1429   92.4050   13.1969 C.3     1  UNL1        0.0000
     24 C          63.1487   85.4209   12.0591 C.3     1  UNL1        0.1245
     25 C          62.3310   84.6045   13.0155 C.3     1  UNL1        0.0970
     26 N          62.9836   83.9687   14.2071 N.3     1  UNL1       -0.2687
     27 C          62.5968   82.5803   14.6223 C.3     1  UNL1        0.0897
     28 C          64.0231   84.7215   14.9836 C.3     1  UNL1        0.0897
@<TRIPOS>BOND
     1    22    23    1
     2    23    21    1
     3    21    20    1
     4    20    19    1
     5    19    18    1
     6    18     1    1
     7     1     2   ar
     8     2     3   ar
     9     3     4   ar
    10     4     5   ar
    11     5    10    1
    12    10    11    2
    13    11    12    1
    14    12    13    2
    15    12    14   am
    16    14    15    1
    17     5     6   ar
    18     6     7   ar
    19     7     8   ar
    20     8     9   ar
    21     9    24    1
    22    24    25    1
    23    25    26    1
    24    26    27    1
    25    26    28    1
    26     9     1   ar
    27     8     3   ar
    28    14    16    1
    29    15    17    1
@<TRIPOS>MOLECULE
*****
 28 29 0 0 0
SMALL
GASTEIGER

@<TRIPOS>ATOM
      1 C          63.6870   84.9857   14.0494 C.ar    1  UNL1        0.1203
      2 N          64.3670   85.9663   14.9582 N.ar    1  UNL1       -0.2310
      3 C          64.2437   87.3296   14.3446 C.ar    1  UNL1        0.0983
      4 C          64.7223   88.6788   14.7924 C.ar    1  UNL1        0.0206
      5 C          64.4447   89.8898   13.9520 C.ar    1  UNL1        0.0017
      6 C          63.6885   89.7517   12.6640 C.ar    1  UNL1        0.0016
      7 C          63.2099   88.4025   12.2163 C.ar    1  UNL1        0.0188
      8 C          63.4875   87.1914   13.0566 C.ar    1  UNL1        0.0786
      9 N          63.1434   85.7428   12.8742 N.ar    1  UNL1       -0.3134
     10 C          64.9234   91.2391   14.3997 C.2     1  UNL1        0.0048
     11 C          66.3757   91.5959   14.2846 C.2     1  UNL1        0.0598
     12 C          66.8543   92.9453   14.7323 C.2     1  UNL1        0.2679
     13 O          66.2226   94.1873   14.1771 O.2     1  UNL1       -0.2681
     14 N          67.9646   93.0524   15.7352 N.am    1  UNL1       -0.1934
     15 O          68.4432   94.4017   16.1828 O.3     1  UNL1       -0.2949
     16 H          68.3792   92.2372   16.0995 H       1  UNL1        0.1825
     17 H          67.9332   95.0920   15.7309 H       1  UNL1        0.2414
     18 C          63.5709   83.5075   14.2761 C.3     1  UNL1        0.0639
     19 C          62.2188   82.8754   14.4246 C.3     1  UNL1        0.0079
     20 C          62.0400   81.4124   14.1454 C.3     1  UNL1        0.0005
     21 C          62.7990   80.7644   13.0255 C.3     1  UNL1        0.0000
     22 C          63.0143   80.8241   10.4371 C.3     1  UNL1        0.0000
     23 C          63.0667   81.5263   11.7615 C.3     1  UNL1        0.0000
     24 C          62.3883   85.1547   11.7192 C.3     1  UNL1        0.1245
     25 C          61.3467   85.9693   11.0113 C.3     1  UNL1        0.0970
     26 N          61.6265   86.5206    9.6446 N.3     1  UNL1       -0.2687
     27 C          62.5298   85.7765    8.7063 C.3     1  UNL1        0.0897
     28 C          61.0031   87.8159    9.2162 C.3     1  UNL1        0.0897
@<TRIPOS>BOND
     1    22    23    1
     2    23    21    1
     3    21    20    1
     4    20    19    1
     5    19    18    1
     6    18     1    1
     7     1     2   ar
     8     2     3   ar
     9     3     4   ar
    10     4     5   ar
    11     5    10    1
    12    10    11    2
    13    11    12    1
    14    12    13    2
    15    12    14   am
    16    14    15    1
    17     5     6   ar
    18     6     7   ar
    19     7     8   ar
    20     8     9   ar
    21     9    24    1
    22    24    25    1
    23    25    26    1
    24    26    27    1
    25    26    28    1
    26     9     1   ar
    27     8     3   ar
    28    14    16    1
    29    15    17    1
@<TRIPOS>MOLECULE
*****
 28 29 0 0 0
SMALL
GASTEIGER

@<TRIPOS>ATOM
      1 C          63.5817   90.1799   12.4168 C.ar    1  UNL1        0.1203
      2 N          63.0527   88.9275   11.7830 N.ar    1  UNL1       -0.2310
      3 C          63.3973   87.7739   12.6776 C.ar    1  UNL1        0.0983
      4 C          63.1314   86.3020   12.5649 C.ar    1  UNL1        0.0206
      5 C          63.6074   85.3695   13.6389 C.ar    1  UNL1        0.0017
      6 C          64.3494   85.9088   14.8258 C.ar    1  UNL1        0.0016
      7 C          64.6154   87.3807   14.9385 C.ar    1  UNL1        0.0188
      8 C          64.1393   88.3133   13.8644 C.ar    1  UNL1        0.0786
      9 N          64.2532   89.8002   13.7032 N.ar    1  UNL1       -0.3134
     10 C          63.3415   83.8975   13.5262 C.2     1  UNL1        0.0048
     11 C          62.4178   83.2257   14.4985 C.2     1  UNL1        0.0598
     12 C          62.1518   81.7537   14.3858 C.2     1  UNL1        0.2679
     13 O          60.7461   81.2370   14.4689 O.2     1  UNL1       -0.2681
     14 N          63.2916   80.7985   14.1899 N.am    1  UNL1       -0.1934
     15 O          63.0256   79.3266   14.0773 O.3     1  UNL1       -0.2949
     16 H          64.2143   81.1376   14.1354 H       1  UNL1        0.1825
     17 H          62.0723   79.1637   14.1512 H       1  UNL1        0.2414
     18 C          63.4603   91.5681   11.8618 C.3     1  UNL1        0.0639
     19 C          64.2872   91.9780   10.6793 C.3     1  UNL1        0.0079
     20 C          65.3852   92.9864   10.8452 C.3     1  UNL1        0.0005
     21 C          66.8185   92.5618   10.7209 C.3     1  UNL1        0.0000
     22 C          68.7392   92.3562    8.9835 C.3     1  UNL1        0.0000
     23 C          67.6969   93.1833    9.6759 C.3     1  UNL1        0.0000
     24 C          64.9214   90.7422   14.6605 C.3     1  UNL1        0.1245
     25 C          66.4004   90.9763   14.5730 C.3     1  UNL1        0.0970
     26 N          66.9761   92.2987   14.9849 N.3     1  UNL1       -0.2687
     27 C          68.0189   92.3602   16.0614 C.3     1  UNL1        0.0897
     28 C          66.5091   93.5598   14.3203 C.3     1  UNL1        0.0897
@<TRIPOS>BOND
     1    22    23    1
     2    23    21    1
     3    21    20    1
     4    20    19    1
     5    19    18    1
     6    18     1    1
     7     1     2   ar
     8     2     3   ar
     9     3     4   ar
    10     4     5   ar
    11     5    10    1
    12    10    11    2
    13    11    12    1
    14    12    13    2
    15    12    14   am
    16    14    15    1
    17     5     6   ar
    18     6     7   ar
    19     7     8   ar
    20     8     9   ar
    21     9    24    1
    22    24    25    1
    23    25    26    1
    24    26    27    1
    25    26    28    1
    26     9     1   ar
    27     8     3   ar
    28    14    16    1
    29    15    17    1
@<TRIPOS>MOLECULE
*****
 28 29 0 0 0
SMALL
GASTEIGER

@<TRIPOS>ATOM
      1 C          63.9915   89.3303   13.8543 C.ar    1  UNL1        0.1203
      2 N          64.2705   87.9816   14.4486 N.ar    1  UNL1       -0.2310
      3 C          63.7285   86.9417   13.5133 C.ar    1  UNL1        0.0983
      4 C          63.7148   85.4432   13.5777 C.ar    1  UNL1        0.0206
      5 C          63.0870   84.6506   12.4697 C.ar    1  UNL1        0.0017
      6 C          62.4729   85.3566   11.2973 C.ar    1  UNL1        0.0016
      7 C          62.4867   86.8551   11.2329 C.ar    1  UNL1        0.0188
      8 C          63.1145   87.6477   12.3409 C.ar    1  UNL1        0.0786
      9 N          63.2770   89.1239   12.5516 N.ar    1  UNL1       -0.3134
     10 C          63.0732   83.1520   12.5340 C.2     1  UNL1        0.0048
     11 C          62.7898   82.3508   11.2980 C.2     1  UNL1        0.0598
     12 C          62.7760   80.8522   11.3624 C.2     1  UNL1        0.2679
     13 O          62.6428   80.1596   12.6862 O.2     1  UNL1       -0.2681
     14 N          62.8954   80.0463   10.1030 N.am    1  UNL1       -0.1934
     15 O          62.8817   78.5478   10.1674 O.3     1  UNL1       -0.2949
     16 H          62.9828   80.5009    9.2341 H       1  UNL1        0.1825
     17 H          62.7898   78.2647   11.0906 H       1  UNL1        0.2414
     18 C          64.3619   90.6531   14.4568 C.3     1  UNL1        0.0639
     19 C          65.6512   91.3170   14.0737 C.3     1  UNL1        0.0079
     20 C          65.7400   92.1036   12.7996 C.3     1  UNL1        0.0005
     21 C          67.0527   92.2265   12.0841 C.3     1  UNL1        0.0000
     22 C          68.3163   92.1903    9.8142 C.3     1  UNL1        0.0000
     23 C          67.0803   92.4934   10.6083 C.3     1  UNL1        0.0000
     24 C          62.8075   90.2041   11.6228 C.3     1  UNL1        0.1245
     25 C          61.3627   90.6070   11.6105 C.3     1  UNL1        0.0970
     26 N          60.3207   89.6480   11.1161 N.3     1  UNL1       -0.2687
     27 C          59.3631   89.0170   12.0830 C.3     1  UNL1        0.0897
     28 C          60.2363   89.3198    9.6549 C.3     1  UNL1        0.0897
@<TRIPOS>BOND
     1    22    23    1
     2    23    21    1
     3    21    20    1
     4    20    19    1
     5    19    18    1
     6    18     1    1
     7     1     2   ar
     8     2     3   ar
     9     3     4   ar
    10     4     5   ar
    11     5    10    1
    12    10    11    2
    13    11    12    1
    14    12    13    2
    15    12    14   am
    16    14    15    1
    17     5     6   ar
    18     6     7   ar
    19     7     8   ar
    20     8     9   ar
    21     9    24    1
    22    24    25    1
    23    25    26    1
    24    26    27    1
    25    26    28    1
    26     9     1   ar
    27     8     3   ar
    28    14    16    1
    29    15    17    1
@<TRIPOS>MOLECULE
*****
 28 29 0 0 0
SMALL
GASTEIGER

@<TRIPOS>ATOM
      1 C          63.1671   89.4206   12.3031 C.ar    1  UNL1        0.1203
      2 N          62.7619   88.0682   11.7965 N.ar    1  UNL1       -0.2310
      3 C          63.2780   87.0392   12.7581 C.ar    1  UNL1        0.0983
      4 C          63.1820   85.5423   12.7735 C.ar    1  UNL1        0.0206
      5 C          63.8103   84.7620   13.8899 C.ar    1  UNL1        0.0017
      6 C          64.5345   85.4785   14.9909 C.ar    1  UNL1        0.0016
      7 C          64.6305   86.9753   14.9755 C.ar    1  UNL1        0.0188
      8 C          64.0022   87.7556   13.8591 C.ar    1  UNL1        0.0786
      9 N          63.9337   89.2275   13.5779 N.ar    1  UNL1       -0.3134
     10 C          63.7144   83.2651   13.9053 C.2     1  UNL1        0.0048
     11 C          63.0445   82.5448   12.7729 C.2     1  UNL1        0.0598
     12 C          62.9486   81.0479   12.7883 C.2     1  UNL1        0.2679
     13 O          62.8176   80.2914   11.4997 O.2     1  UNL1       -0.2681
     14 N          62.9836   80.3075   14.0924 N.am    1  UNL1       -0.1934
     15 O          62.8877   78.8107   14.1078 O.3     1  UNL1       -0.2949
     16 H          63.0696   80.8040   14.9382 H       1  UNL1        0.1825
     17 H          62.8086   78.4824   13.1984 H       1  UNL1        0.2414
     18 C          62.8597   90.7354   11.6496 C.3     1  UNL1        0.0639
     19 C          61.9650   90.7840   10.4467 C.3     1  UNL1        0.0079
     20 C          60.4938   90.5322   10.5956 C.3     1  UNL1        0.0005
     21 C          59.9063   89.2290   10.1410 C.3     1  UNL1        0.0000
     22 C          60.6744   87.0646    8.9263 C.3     1  UNL1        0.0000
     23 C          60.4482   88.5474    8.9196 C.3     1  UNL1        0.0000
     24 C          64.5275   90.3151   14.4231 C.3     1  UNL1        0.1245
     25 C          65.4378   91.3338   13.8038 C.3     1  UNL1        0.0970
     26 N          66.5282   91.9607   14.6211 N.3     1  UNL1       -0.2687
     27 C          67.9351   91.9854   14.1015 C.3     1  UNL1        0.0897
     28 C          66.2117   92.5629   15.9579 C.3     1  UNL1        0.0897
@<TRIPOS>BOND
     1    22    23    1
     2    23    21    1
     3    21    20    1
     4    20    19    1
     5    19    18    1
     6    18     1    1
     7     1     2   ar
     8     2     3   ar
     9     3     4   ar
    10     4     5   ar
    11     5    10    1
    12    10    11    2
    13    11    12    1
    14    12    13    2
    15    12    14   am
    16    14    15    1
    17     5     6   ar
    18     6     7   ar
    19     7     8   ar
    20     8     9   ar
    21     9    24    1
    22    24    25    1
    23    25    26    1
    24    26    27    1
    25    26    28    1
    26     9     1   ar
    27     8     3   ar
    28    14    16    1
    29    15    17    1
@<TRIPOS>MOLECULE
*****
 28 29 0 0 0
SMALL
GASTEIGER

@<TRIPOS>ATOM
      1 C          64.3994   90.0272   14.1571 C.ar    1  UNL1        0.1203
      2 N          64.3805   88.5656   14.4940 N.ar    1  UNL1       -0.2310
      3 C          63.7051   87.8392   13.3688 C.ar    1  UNL1        0.0983
      4 C          63.4015   86.3865   13.1509 C.ar    1  UNL1        0.0206
      5 C          62.6993   85.9464   11.9007 C.ar    1  UNL1        0.0017
      6 C          62.3007   86.9590   10.8683 C.ar    1  UNL1        0.0016
      7 C          62.6043   88.4117   11.0862 C.ar    1  UNL1        0.0188
      8 C          63.3065   88.8518   12.3365 C.ar    1  UNL1        0.0786
      9 N          63.7356   90.2040   12.8237 N.ar    1  UNL1       -0.3134
     10 C          62.3957   84.4937   11.6827 C.2     1  UNL1        0.0048
     11 C          63.2738   83.4437   12.2963 C.2     1  UNL1        0.0598
     12 C          62.9701   81.9910   12.0783 C.2     1  UNL1        0.2679
     13 O          63.1440   81.3844   10.7175 O.2     1  UNL1       -0.2681
     14 N          62.4927   81.1449   13.2212 N.am    1  UNL1       -0.1934
     15 O          62.1891   79.6922   13.0032 O.3     1  UNL1       -0.2949
     16 H          62.3786   81.5430   14.1143 H       1  UNL1        0.1825
     17 H          62.3529   79.4634   12.0749 H       1  UNL1        0.2414
     18 C          64.9801   91.1200   15.0048 C.3     1  UNL1        0.0639
     19 C          66.4035   91.5487   14.8042 C.3     1  UNL1        0.0079
     20 C          67.0774   92.4141   15.8274 C.3     1  UNL1        0.0005
     21 C          68.4929   92.1304   16.2346 C.3     1  UNL1        0.0000
     22 C          69.0953   94.6372   15.9144 C.3     1  UNL1        0.0000
     23 C          69.5156   93.2273   16.2065 C.3     1  UNL1        0.0000
     24 C          63.5359   91.5047   12.1038 C.3     1  UNL1        0.1245
     25 C          64.4017   91.8526   10.9294 C.3     1  UNL1        0.0970
     26 N          65.6731   92.6213   11.1365 N.3     1  UNL1       -0.2687
     27 C          65.7383   93.6956   12.1813 C.3     1  UNL1        0.0897
     28 C          66.8792   92.3157   10.2987 C.3     1  UNL1        0.0897
@<TRIPOS>BOND
     1    22    23    1
     2    23    21    1
     3    21    20    1
     4    20    19    1
     5    19    18    1
     6    18     1    1
     7     1     2   ar
     8     2     3   ar
     9     3     4   ar
    10     4     5   ar
    11     5    10    1
    12    10    11    2
    13    11    12    1
    14    12    13    2
    15    12    14   am
    16    14    15    1
    17     5     6   ar
    18     6     7   ar
    19     7     8   ar
    20     8     9   ar
    21     9    24    1
    22    24    25    1
    23    25    26    1
    24    26    27    1
    25    26    28    1
    26     9     1   ar
    27     8     3   ar
    28    14    16    1
    29    15    17    1
@<TRIPOS>MOLECULE
*****
 28 29 0 0 0
SMALL
GASTEIGER

@<TRIPOS>ATOM
      1 C          60.9877   88.8498    9.7006 C.ar    1  UNL1        0.1203
      2 N          60.8278   87.3690    9.8788 N.ar    1  UNL1       -0.2310
      3 C          61.7411   86.9341   10.9864 C.ar    1  UNL1        0.0983
      4 C          62.0066   85.5910   11.5992 C.ar    1  UNL1        0.0206
      5 C          62.9966   85.4599   12.7184 C.ar    1  UNL1        0.0017
      6 C          63.7211   86.6718   13.2248 C.ar    1  UNL1        0.0016
      7 C          63.4555   88.0149   12.6119 C.ar    1  UNL1        0.0188
      8 C          62.4655   88.1460   11.4927 C.ar    1  UNL1        0.0786
      9 N          61.9999   89.3300   10.6980 N.ar    1  UNL1       -0.3134
     10 C          63.2622   84.1168   13.3314 C.2     1  UNL1        0.0048
     11 C          62.6815   82.8810   12.7106 C.2     1  UNL1        0.0598
     12 C          62.9471   81.5379   13.3235 C.2     1  UNL1        0.2679
     13 O          63.9851   81.3954   14.3970 O.2     1  UNL1       -0.2681
     14 N          62.1747   80.3374   12.8630 N.am    1  UNL1       -0.1934
     15 O          62.4403   78.9944   13.4759 O.3     1  UNL1       -0.2949
     16 H          61.4935   80.4309   12.1584 H       1  UNL1        0.1825
     17 H          63.1348   79.0773   14.1480 H       1  UNL1        0.2414
     18 C          60.2628   89.7009    8.7006 C.3     1  UNL1        0.0639
     19 C          59.5423   89.0595    7.5520 C.3     1  UNL1        0.0079
     20 C          59.8541   89.4750    6.1448 C.3     1  UNL1        0.0005
     21 C          59.2064   90.6962    5.5624 C.3     1  UNL1        0.0000
     22 C          57.0155   91.7313    4.6252 C.3     1  UNL1        0.0000
     23 C          57.7159   90.8546    5.6205 C.3     1  UNL1        0.0000
     24 C          62.4649   90.7456   10.8706 C.3     1  UNL1        0.1245
     25 C          62.9918   91.2056   12.1975 C.3     1  UNL1        0.0970
     26 N          64.4258   91.6249   12.3306 N.3     1  UNL1       -0.2687
     27 C          65.1808   91.3254   13.5917 C.3     1  UNL1        0.0897
     28 C          65.1049   92.3437   11.2027 C.3     1  UNL1        0.0897
@<TRIPOS>BOND
     1    22    23    1
     2    23    21    1
     3    21    20    1
     4    20    19    1
     5    19    18    1
     6    18     1    1
     7     1     2   ar
     8     2     3   ar
     9     3     4   ar
    10     4     5   ar
    11     5    10    1
    12    10    11    2
    13    11    12    1
    14    12    13    2
    15    12    14   am
    16    14    15    1
    17     5     6   ar
    18     6     7   ar
    19     7     8   ar
    20     8     9   ar
    21     9    24    1
    22    24    25    1
    23    25    26    1
    24    26    27    1
    25    26    28    1
    26     9     1   ar
    27     8     3   ar
    28    14    16    1
    29    15    17    1
