@<TRIPOS>MOLECULE
*****
 32 37 0 0 0
SMALL
GASTEIGER

@<TRIPOS>ATOM
      1 C          62.9245   90.9437   11.5536 C.3     1  UNL1        0.0749
      2 C          64.2449   91.6427   11.4200 C.3     1  UNL1        0.0444
      3 C          65.1703   91.7289   12.5974 C.ar    1  UNL1       -0.0101
      4 C          64.7753   91.1161   13.9083 C.ar    1  UNL1       -0.0091
      5 C          65.7008   91.2023   15.0856 C.ar    1  UNL1       -0.0032
      6 C          67.0212   91.9013   14.9521 C.ar    1  UNL1        0.0010
      7 C          67.4162   92.5141   13.6412 C.ar    1  UNL1        0.0142
      8 C          66.4908   92.4280   12.4639 C.ar    1  UNL1        0.0436
      9 C          63.4549   90.4171   14.0418 C.3     1  UNL1        0.0954
     10 N          62.5295   90.3309   12.8645 N.3     1  UNL1       -0.2934
     11 H          61.6545   90.7737   13.1447 H       1  UNL1        0.1236
     12 N          66.8858   93.0408   11.1530 N.pl3   1  UNL1       -0.3066
     13 C          67.7148   92.3863   10.0879 C.3     1  UNL1        0.1064
     14 C          67.8625   93.3568    8.9537 C.3     1  UNL1        0.0757
     15 C          67.2589   93.1615   10.3129 C.3     1  UNL1        0.0386
     16 C          66.5212   94.4157   10.6770 C.3     1  UNL1        0.0899
     17 C          66.6689   95.3862    9.5428 C.3     1  UNL1        0.0886
     18 N          67.4979   94.7317    8.4778 N.3     1  UNL1       -0.2957
     19 H          68.3441   95.2770    8.3139 H       1  UNL1        0.1233
     20 C          61.9991   90.8575   10.3762 C.3     1  UNL1        0.0886
     21 C          59.5934   90.5348   11.3028 C.3     1  UNL1        0.0899
     22 N          60.7408   90.0464   10.4691 N.3     1  UNL1       -0.2667
     23 C          60.6298   88.7468    9.7284 C.3     1  UNL1        0.0978
     24 C          59.8454   88.6757    8.4518 C.3     1  UNL1        0.0224
     25 C          59.7344   87.3761    7.7111 C.3     1  UNL1        0.0065
     26 C          60.4078   86.1475    8.2469 C.3     1  UNL1        0.0277
     27 C          61.1922   86.2185    9.5235 C.ar    1  UNL1       -0.0073
     28 C          61.8656   84.9900   10.0593 C.ar    1  UNL1       -0.0015
     29 C          62.6500   85.0610   11.3359 C.ar    1  UNL1        0.0203
     30 C          62.7610   86.3606   12.0766 C.ar    1  UNL1        0.0985
     31 N          62.0876   87.5892   11.5408 N.ar    1  UNL1       -0.2471
     32 C          61.3032   87.5181   10.2643 C.ar    1  UNL1        0.0695
@<TRIPOS>BOND
     1    21    22    1
     2    22    20    1
     3     1    20    1
     4     1     2    1
     5     2     3    1
     6     3     4   ar
     7     4     5   ar
     8     5     6   ar
     9     6     7   ar
    10     7     8   ar
    11     8    12    1
    12    12    13    1
    13    14    13    1
    14    14    15    1
    15    15    16    1
    16    16    17    1
    17    17    18    1
    18     4     9    1
    19     9    10    1
    20    23    22    1
    21    23    24    1
    22    24    25    1
    23    25    26    1
    24    26    27    1
    25    27    28   ar
    26    28    29   ar
    27    29    30   ar
    28    30    31   ar
    29    31    32   ar
    30    10     1    1
    31    32    23    1
    32     8     3   ar
    33    16    12    1
    34    32    27   ar
    35    18    14    1
    36    18    19    1
    37    10    11    1
@<TRIPOS>MOLECULE
*****
 32 37 0 0 0
SMALL
GASTEIGER

@<TRIPOS>ATOM
      1 C          63.0522   90.0294   11.8406 C.3     1  UNL1        0.0749
      2 C          64.1491   91.0496   11.7643 C.3     1  UNL1        0.0444
      3 C          64.7912   91.5559   13.0217 C.ar    1  UNL1       -0.0101
      4 C          64.3364   91.0421   14.3556 C.ar    1  UNL1       -0.0091
      5 C          64.9786   91.5485   15.6131 C.ar    1  UNL1       -0.0032
      6 C          66.0755   92.5687   15.5367 C.ar    1  UNL1        0.0010
      7 C          66.5303   93.0826   14.2029 C.ar    1  UNL1        0.0142
      8 C          65.8882   92.5762   12.9454 C.ar    1  UNL1        0.0436
      9 C          63.2395   90.0218   14.4319 C.3     1  UNL1        0.0954
     10 N          62.5974   89.5155   13.1744 N.3     1  UNL1       -0.2934
     11 H          61.6019   89.7254   13.2470 H       1  UNL1        0.1236
     12 N          66.3430   93.0901   11.6116 N.pl3   1  UNL1       -0.3066
     13 C          65.8233   94.3118   10.9135 C.3     1  UNL1        0.1064
     14 C          66.5565   94.4493    9.6121 C.3     1  UNL1        0.0757
     15 C          66.4245   93.6093   10.8479 C.3     1  UNL1        0.0386
     16 C          67.3974   92.4725   10.7417 C.3     1  UNL1        0.0899
     17 C          68.1306   92.6100    9.4403 C.3     1  UNL1        0.0886
     18 N          67.6108   93.8317    8.7423 N.3     1  UNL1       -0.2957
     19 H          67.2080   93.5710    7.8422 H       1  UNL1        0.1233
     20 C          62.4101   89.5229   10.5831 C.3     1  UNL1        0.0886
     21 C          60.1527   88.3900   11.1920 C.3     1  UNL1        0.0899
     22 N          61.5387   88.3028   10.6248 N.3     1  UNL1       -0.2667
     23 C          62.0531   86.9954   10.0994 C.3     1  UNL1        0.0978
     24 C          61.9563   86.6853    8.6350 C.3     1  UNL1        0.0224
     25 C          62.4707   85.3779    8.1096 C.3     1  UNL1        0.0065
     26 C          63.0820   84.3806    9.0485 C.3     1  UNL1        0.0277
     27 C          63.1788   84.6906   10.5130 C.ar    1  UNL1       -0.0073
     28 C          63.7900   83.6933   11.4519 C.ar    1  UNL1       -0.0015
     29 C          63.8869   84.0034   12.9163 C.ar    1  UNL1        0.0203
     30 C          63.3724   85.3108   13.4417 C.ar    1  UNL1        0.0985
     31 N          62.7612   86.3081   12.5028 N.ar    1  UNL1       -0.2471
     32 C          62.6644   85.9980   11.0384 C.ar    1  UNL1        0.0695
@<TRIPOS>BOND
     1    21    22    1
     2    22    20    1
     3     1    20    1
     4     1     2    1
     5     2     3    1
     6     3     4   ar
     7     4     5   ar
     8     5     6   ar
     9     6     7   ar
    10     7     8   ar
    11     8    12    1
    12    12    13    1
    13    14    13    1
    14    14    15    1
    15    15    16    1
    16    16    17    1
    17    17    18    1
    18     4     9    1
    19     9    10    1
    20    23    22    1
    21    23    24    1
    22    24    25    1
    23    25    26    1
    24    26    27    1
    25    27    28   ar
    26    28    29   ar
    27    29    30   ar
    28    30    31   ar
    29    31    32   ar
    30    10     1    1
    31    32    23    1
    32     8     3   ar
    33    16    12    1
    34    32    27   ar
    35    18    14    1
    36    18    19    1
    37    10    11    1
@<TRIPOS>MOLECULE
*****
 32 37 0 0 0
SMALL
GASTEIGER

@<TRIPOS>ATOM
      1 C          61.0762   87.0330   10.5144 C.3     1  UNL1        0.0749
      2 C          61.7731   86.2384   11.5787 C.3     1  UNL1        0.0444
      3 C          62.7082   85.1299   11.1957 C.ar    1  UNL1       -0.0101
      4 C          62.9464   84.8160    9.7484 C.ar    1  UNL1       -0.0091
      5 C          63.8816   83.7074    9.3655 C.ar    1  UNL1       -0.0032
      6 C          64.5785   82.9128   10.4298 C.ar    1  UNL1        0.0010
      7 C          64.3403   83.2267   11.8771 C.ar    1  UNL1        0.0142
      8 C          63.4052   84.3352   12.2601 C.ar    1  UNL1        0.0436
      9 C          62.2495   85.6106    8.6841 C.3     1  UNL1        0.0954
     10 N          61.3144   86.7191    9.0670 N.3     1  UNL1       -0.2934
     11 H          60.4064   86.4916    8.6618 H       1  UNL1        0.1236
     12 N          63.1669   84.6491   13.7074 N.pl3   1  UNL1       -0.3066
     13 C          62.1915   83.9551   14.6112 C.3     1  UNL1        0.1064
     14 C          62.2840   84.5892   15.9674 C.3     1  UNL1        0.0757
     15 C          62.8297   84.6262   14.5707 C.3     1  UNL1        0.0386
     16 C          63.8623   85.7122   14.5051 C.3     1  UNL1        0.0899
     17 C          63.9549   86.3463   15.8613 C.3     1  UNL1        0.0886
     18 N          62.9794   85.6522   16.7650 N.3     1  UNL1       -0.2957
     19 H          62.2965   86.3229   17.1175 H       1  UNL1        0.1233
     20 C          60.1410   88.1416   10.8973 C.3     1  UNL1        0.0886
     21 C          59.7881   89.4153   13.1341 C.3     1  UNL1        0.0899
     22 N          60.5791   89.1865   11.8802 N.3     1  UNL1       -0.2667
     23 C          61.8082   90.0025   11.6095 C.3     1  UNL1        0.0978
     24 C          62.0585   90.5479   10.2347 C.3     1  UNL1        0.0224
     25 C          63.2877   91.3639    9.9639 C.3     1  UNL1        0.0065
     26 C          64.2664   91.6347   11.0679 C.3     1  UNL1        0.0277
     27 C          64.0161   91.0894   12.4427 C.ar    1  UNL1       -0.0073
     28 C          64.9948   91.3601   13.5466 C.ar    1  UNL1       -0.0015
     29 C          64.7444   90.8148   14.9213 C.ar    1  UNL1        0.0203
     30 C          63.5153   89.9988   15.1921 C.ar    1  UNL1        0.0985
     31 N          62.5366   89.7280   14.0882 N.ar    1  UNL1       -0.2471
     32 C          62.7869   90.2733   12.7135 C.ar    1  UNL1        0.0695
@<TRIPOS>BOND
     1    21    22    1
     2    22    20    1
     3     1    20    1
     4     1     2    1
     5     2     3    1
     6     3     4   ar
     7     4     5   ar
     8     5     6   ar
     9     6     7   ar
    10     7     8   ar
    11     8    12    1
    12    12    13    1
    13    14    13    1
    14    14    15    1
    15    15    16    1
    16    16    17    1
    17    17    18    1
    18     4     9    1
    19     9    10    1
    20    23    22    1
    21    23    24    1
    22    24    25    1
    23    25    26    1
    24    26    27    1
    25    27    28   ar
    26    28    29   ar
    27    29    30   ar
    28    30    31   ar
    29    31    32   ar
    30    10     1    1
    31    32    23    1
    32     8     3   ar
    33    16    12    1
    34    32    27   ar
    35    18    14    1
    36    18    19    1
    37    10    11    1
@<TRIPOS>MOLECULE
*****
 32 37 0 0 0
SMALL
GASTEIGER

@<TRIPOS>ATOM
      1 C          63.2064   91.0061   12.1707 C.3     1  UNL1        0.0749
      2 C          64.5194   91.6614   11.8602 C.3     1  UNL1        0.0444
      3 C          65.5452   91.8345   12.9408 C.ar    1  UNL1       -0.0101
      4 C          65.2580   91.3522   14.3318 C.ar    1  UNL1       -0.0091
      5 C          66.2839   91.5253   15.4124 C.ar    1  UNL1       -0.0032
      6 C          67.5970   92.1806   15.1020 C.ar    1  UNL1        0.0010
      7 C          67.8842   92.6629   13.7110 C.ar    1  UNL1        0.0142
      8 C          66.8583   92.4898   12.6304 C.ar    1  UNL1        0.0436
      9 C          63.9450   90.6969   14.6423 C.3     1  UNL1        0.0954
     10 N          62.9191   90.5238   13.5617 N.3     1  UNL1       -0.2934
     11 H          62.0780   91.0091   13.8738 H       1  UNL1        0.1236
     12 N          67.1456   92.9721   11.2394 N.pl3   1  UNL1       -0.3066
     13 C          67.9294   92.2344   10.1947 C.3     1  UNL1        0.1064
     14 C          67.9676   93.0831    8.9585 C.3     1  UNL1        0.0757
     15 C          67.4596   93.0145   10.3681 C.3     1  UNL1        0.0386
     16 C          66.6994   94.2767   10.6488 C.3     1  UNL1        0.0899
     17 C          66.7376   95.1255    9.4126 C.3     1  UNL1        0.0886
     18 N          67.5214   94.3877    8.3680 N.3     1  UNL1       -0.2957
     19 H          68.3342   94.9386    8.0918 H       1  UNL1        0.1233
     20 C          62.1804   90.8330   11.0901 C.3     1  UNL1        0.0886
     21 C          59.7711   90.1885   11.8179 C.3     1  UNL1        0.0899
     22 N          61.1003   89.8030   11.2394 N.3     1  UNL1       -0.2667
     23 C          61.3494   88.3874   10.8103 C.3     1  UNL1        0.0978
     24 C          62.2472   87.5038   11.6246 C.3     1  UNL1        0.0224
     25 C          62.4963   86.0882   11.1955 C.3     1  UNL1        0.0065
     26 C          61.8475   85.5562    9.9522 C.3     1  UNL1        0.0277
     27 C          60.9496   86.4398    9.1378 C.ar    1  UNL1       -0.0073
     28 C          60.3007   85.9079    7.8945 C.ar    1  UNL1       -0.0015
     29 C          59.4029   86.7914    7.0802 C.ar    1  UNL1        0.0203
     30 C          59.1539   88.2070    7.5093 C.ar    1  UNL1        0.0985
     31 N          59.8027   88.7390    8.7526 N.ar    1  UNL1       -0.2471
     32 C          60.7005   87.8554    9.5669 C.ar    1  UNL1        0.0695
@<TRIPOS>BOND
     1    21    22    1
     2    22    20    1
     3     1    20    1
     4     1     2    1
     5     2     3    1
     6     3     4   ar
     7     4     5   ar
     8     5     6   ar
     9     6     7   ar
    10     7     8   ar
    11     8    12    1
    12    12    13    1
    13    14    13    1
    14    14    15    1
    15    15    16    1
    16    16    17    1
    17    17    18    1
    18     4     9    1
    19     9    10    1
    20    23    22    1
    21    23    24    1
    22    24    25    1
    23    25    26    1
    24    26    27    1
    25    27    28   ar
    26    28    29   ar
    27    29    30   ar
    28    30    31   ar
    29    31    32   ar
    30    10     1    1
    31    32    23    1
    32     8     3   ar
    33    16    12    1
    34    32    27   ar
    35    18    14    1
    36    18    19    1
    37    10    11    1
@<TRIPOS>MOLECULE
*****
 32 37 0 0 0
SMALL
GASTEIGER

@<TRIPOS>ATOM
      1 C          64.3944   86.4347   14.6178 C.3     1  UNL1        0.0749
      2 C          63.6766   86.0213   13.3673 C.3     1  UNL1        0.0444
      3 C          63.3457   84.5768   13.1353 C.ar    1  UNL1       -0.0101
      4 C          63.7326   83.5457   14.1537 C.ar    1  UNL1       -0.0091
      5 C          63.4017   82.1011   13.9216 C.ar    1  UNL1       -0.0032
      6 C          62.6839   81.6877   12.6712 C.ar    1  UNL1        0.0010
      7 C          62.2969   82.7188   11.6527 C.ar    1  UNL1        0.0142
      8 C          62.6278   84.1632   11.8848 C.ar    1  UNL1        0.0436
      9 C          64.4504   83.9592   15.4042 C.3     1  UNL1        0.0954
     10 N          64.7813   85.4036   15.6362 N.3     1  UNL1       -0.2934
     11 H          65.7942   85.4603   15.7425 H       1  UNL1        0.1236
     12 N          62.2409   85.1943   10.8663 N.pl3   1  UNL1       -0.3066
     13 C          62.8466   85.3586    9.5039 C.3     1  UNL1        0.1064
     14 C          62.1604   86.5079    8.8271 C.3     1  UNL1        0.0757
     15 C          62.2101   85.6961   10.0874 C.3     1  UNL1        0.0386
     16 C          61.1803   86.2421   11.0314 C.3     1  UNL1        0.0899
     17 C          60.4941   87.3914   10.3546 C.3     1  UNL1        0.0886
     18 N          61.0998   87.5557    8.9922 N.3     1  UNL1       -0.2957
     19 H          61.5140   88.4839    8.9072 H       1  UNL1        0.1233
     20 C          64.7253   87.8793   14.8499 C.3     1  UNL1        0.0886
     21 C          62.6097   89.1688   15.6316 C.3     1  UNL1        0.0899
     22 N          63.6857   88.9343   14.6132 N.3     1  UNL1       -0.2667
     23 C          63.7221   89.7548   13.3580 C.3     1  UNL1        0.0978
     24 C          62.8868   89.3567   12.1773 C.3     1  UNL1        0.0224
     25 C          62.9232   90.1772   10.9222 C.3     1  UNL1        0.0065
     26 C          63.7947   91.3957   10.8476 C.3     1  UNL1        0.0277
     27 C          64.6300   91.7938   12.0283 C.ar    1  UNL1       -0.0073
     28 C          65.5016   93.0123   11.9537 C.ar    1  UNL1       -0.0015
     29 C          66.3368   93.4103   13.1344 C.ar    1  UNL1        0.0203
     30 C          66.3004   92.5898   14.3896 C.ar    1  UNL1        0.0985
     31 N          65.4289   91.3713   14.4641 N.ar    1  UNL1       -0.2471
     32 C          64.5937   90.9733   13.2835 C.ar    1  UNL1        0.0695
@<TRIPOS>BOND
     1    21    22    1
     2    22    20    1
     3     1    20    1
     4     1     2    1
     5     2     3    1
     6     3     4   ar
     7     4     5   ar
     8     5     6   ar
     9     6     7   ar
    10     7     8   ar
    11     8    12    1
    12    12    13    1
    13    14    13    1
    14    14    15    1
    15    15    16    1
    16    16    17    1
    17    17    18    1
    18     4     9    1
    19     9    10    1
    20    23    22    1
    21    23    24    1
    22    24    25    1
    23    25    26    1
    24    26    27    1
    25    27    28   ar
    26    28    29   ar
    27    29    30   ar
    28    30    31   ar
    29    31    32   ar
    30    10     1    1
    31    32    23    1
    32     8     3   ar
    33    16    12    1
    34    32    27   ar
    35    18    14    1
    36    18    19    1
    37    10    11    1
@<TRIPOS>MOLECULE
*****
 32 37 0 0 0
SMALL
GASTEIGER

@<TRIPOS>ATOM
      1 C          63.8745   91.6598   10.9196 C.3     1  UNL1        0.0749
      2 C          64.1007   91.2219   12.3363 C.3     1  UNL1        0.0444
      3 C          65.0868   91.9525   13.1987 C.ar    1  UNL1       -0.0101
      4 C          65.8467   93.1210   12.6444 C.ar    1  UNL1       -0.0091
      5 C          66.8328   93.8517   13.5069 C.ar    1  UNL1       -0.0032
      6 C          67.0590   93.4138   14.9235 C.ar    1  UNL1        0.0010
      7 C          66.2992   92.2453   15.4778 C.ar    1  UNL1        0.0142
      8 C          65.3131   91.5147   14.6154 C.ar    1  UNL1        0.0436
      9 C          65.6204   93.5589   11.2277 C.3     1  UNL1        0.0954
     10 N          64.6344   92.8283   10.3653 N.3     1  UNL1       -0.2934
     11 H          65.1493   92.4865    9.5539 H       1  UNL1        0.1236
     12 N          64.5532   90.3462   15.1697 N.pl3   1  UNL1       -0.3066
     13 C          63.5182   90.4017   16.2539 C.3     1  UNL1        0.1064
     14 C          63.0202   89.0068   16.4914 C.3     1  UNL1        0.0757
     15 C          63.9676   89.8346   15.6746 C.3     1  UNL1        0.0386
     16 C          64.6950   88.9169   14.7371 C.3     1  UNL1        0.0899
     17 C          64.1970   87.5220   14.9746 C.3     1  UNL1        0.0886
     18 N          63.1620   87.5777   16.0588 N.3     1  UNL1       -0.2957
     19 H          63.4575   87.0045   16.8491 H       1  UNL1        0.1233
     20 C          62.8884   90.9291   10.0571 C.3     1  UNL1        0.0886
     21 C          60.7189   90.8479   11.4843 C.3     1  UNL1        0.0899
     22 N          61.7774   90.1435   10.6884 N.3     1  UNL1       -0.2667
     23 C          61.7250   88.6535   10.5238 C.3     1  UNL1        0.0978
     24 C          62.5096   87.7689   11.4468 C.3     1  UNL1        0.0224
     25 C          62.4572   86.2789   11.2822 C.3     1  UNL1        0.0065
     26 C          61.6201   85.6734   10.1947 C.3     1  UNL1        0.0277
     27 C          60.8355   86.5580    9.2717 C.ar    1  UNL1       -0.0073
     28 C          59.9984   85.9526    8.1842 C.ar    1  UNL1       -0.0015
     29 C          59.2138   86.8371    7.2612 C.ar    1  UNL1        0.0203
     30 C          59.2663   88.3271    7.4258 C.ar    1  UNL1        0.0985
     31 N          60.1033   88.9326    8.5133 N.ar    1  UNL1       -0.2471
     32 C          60.8879   88.0480    9.4362 C.ar    1  UNL1        0.0695
@<TRIPOS>BOND
     1    21    22    1
     2    22    20    1
     3     1    20    1
     4     1     2    1
     5     2     3    1
     6     3     4   ar
     7     4     5   ar
     8     5     6   ar
     9     6     7   ar
    10     7     8   ar
    11     8    12    1
    12    12    13    1
    13    14    13    1
    14    14    15    1
    15    15    16    1
    16    16    17    1
    17    17    18    1
    18     4     9    1
    19     9    10    1
    20    23    22    1
    21    23    24    1
    22    24    25    1
    23    25    26    1
    24    26    27    1
    25    27    28   ar
    26    28    29   ar
    27    29    30   ar
    28    30    31   ar
    29    31    32   ar
    30    10     1    1
    31    32    23    1
    32     8     3   ar
    33    16    12    1
    34    32    27   ar
    35    18    14    1
    36    18    19    1
    37    10    11    1
@<TRIPOS>MOLECULE
*****
 32 37 0 0 0
SMALL
GASTEIGER

@<TRIPOS>ATOM
      1 C          62.5061   90.0910   10.7204 C.3     1  UNL1        0.0749
      2 C          63.0605   89.8925   12.0999 C.3     1  UNL1        0.0444
      3 C          64.1408   90.7986   12.6116 C.ar    1  UNL1       -0.0101
      4 C          64.6667   91.9032   11.7437 C.ar    1  UNL1       -0.0091
      5 C          65.7471   92.8094   12.2555 C.ar    1  UNL1       -0.0032
      6 C          66.3015   92.6109   13.6350 C.ar    1  UNL1        0.0010
      7 C          65.7755   91.5062   14.5029 C.ar    1  UNL1        0.0142
      8 C          64.6952   90.6001   13.9912 C.ar    1  UNL1        0.0436
      9 C          64.1123   92.1017   10.3642 C.3     1  UNL1        0.0954
     10 N          63.0320   91.1956    9.8525 N.3     1  UNL1       -0.2934
     11 H          63.3921   90.7578    9.0045 H       1  UNL1        0.1236
     12 N          64.1693   89.4955   14.8591 N.pl3   1  UNL1       -0.3066
     13 C          63.2540   89.6588   16.0362 C.3     1  UNL1        0.1064
     14 C          62.9854   88.2979   16.6069 C.3     1  UNL1        0.0757
     15 C          63.7171   89.0380   15.5267 C.3     1  UNL1        0.0386
     16 C          64.4663   88.0336   14.7023 C.3     1  UNL1        0.0899
     17 C          64.1977   86.6726   15.2730 C.3     1  UNL1        0.0886
     18 N          63.2824   86.8360   16.4500 N.3     1  UNL1       -0.2957
     19 H          63.7357   86.4826   17.2926 H       1  UNL1        0.1233
     20 C          61.4258   89.1849   10.2086 C.3     1  UNL1        0.0886
     21 C          60.3360   87.6319   11.9837 C.3     1  UNL1        0.0899
     22 N          61.2456   87.8208   10.8059 N.3     1  UNL1       -0.2667
     23 C          61.9749   86.6456   10.2256 C.3     1  UNL1        0.0978
     24 C          62.2571   86.5904    8.7534 C.3     1  UNL1        0.0224
     25 C          62.9864   85.4152    8.1730 C.3     1  UNL1        0.0065
     26 C          63.4336   84.2951    9.0648 C.3     1  UNL1        0.0277
     27 C          63.1515   84.3502   10.5370 C.ar    1  UNL1       -0.0073
     28 C          63.5987   83.2300   11.4288 C.ar    1  UNL1       -0.0015
     29 C          63.3165   83.2852   12.9010 C.ar    1  UNL1        0.0203
     30 C          62.5872   84.4604   13.4814 C.ar    1  UNL1        0.0985
     31 N          62.1400   85.5805   12.5896 N.ar    1  UNL1       -0.2471
     32 C          62.4221   85.5254   11.1174 C.ar    1  UNL1        0.0695
@<TRIPOS>BOND
     1    21    22    1
     2    22    20    1
     3     1    20    1
     4     1     2    1
     5     2     3    1
     6     3     4   ar
     7     4     5   ar
     8     5     6   ar
     9     6     7   ar
    10     7     8   ar
    11     8    12    1
    12    12    13    1
    13    14    13    1
    14    14    15    1
    15    15    16    1
    16    16    17    1
    17    17    18    1
    18     4     9    1
    19     9    10    1
    20    23    22    1
    21    23    24    1
    22    24    25    1
    23    25    26    1
    24    26    27    1
    25    27    28   ar
    26    28    29   ar
    27    29    30   ar
    28    30    31   ar
    29    31    32   ar
    30    10     1    1
    31    32    23    1
    32     8     3   ar
    33    16    12    1
    34    32    27   ar
    35    18    14    1
    36    18    19    1
    37    10    11    1
@<TRIPOS>MOLECULE
*****
 32 37 0 0 0
SMALL
GASTEIGER

@<TRIPOS>ATOM
      1 C          63.3485   84.1253   12.7210 C.3     1  UNL1        0.0749
      2 C          62.7515   85.3119   12.0243 C.3     1  UNL1        0.0444
      3 C          62.6481   85.3295   10.5281 C.ar    1  UNL1       -0.0101
      4 C          63.1417   84.1603    9.7284 C.ar    1  UNL1       -0.0091
      5 C          63.0383   84.1779    8.2320 C.ar    1  UNL1       -0.0032
      6 C          62.4413   85.3646    7.5354 C.ar    1  UNL1        0.0010
      7 C          61.9477   86.5338    8.3350 C.ar    1  UNL1        0.0142
      8 C          62.0511   86.5162    9.8313 C.ar    1  UNL1        0.0436
      9 C          63.7387   82.9737   10.4250 C.3     1  UNL1        0.0954
     10 N          63.8421   82.9561   11.9213 N.3     1  UNL1       -0.2934
     11 H          64.8302   82.8412   12.1468 H       1  UNL1        0.1236
     12 N          61.5575   87.6854   10.6310 N.pl3   1  UNL1       -0.3066
     13 C          62.3572   88.8977   11.0060 C.3     1  UNL1        0.1064
     14 C          61.4715   89.8091   11.8029 C.3     1  UNL1        0.0757
     15 C          61.5246   88.4966   11.0786 C.3     1  UNL1        0.0386
     16 C          60.1775   87.8474   11.1961 C.3     1  UNL1        0.0899
     17 C          59.2918   88.7588   11.9930 C.3     1  UNL1        0.0886
     18 N          60.0915   89.9711   12.3679 N.3     1  UNL1       -0.2957
     19 H          60.1407   90.0528   13.3834 H       1  UNL1        0.1233
     20 C          63.4519   84.1077   14.2174 C.3     1  UNL1        0.0886
     21 C          65.8373   85.0549   14.6205 C.3     1  UNL1        0.0899
     22 N          64.3670   85.0682   14.9172 N.3     1  UNL1       -0.2667
     23 C          63.8118   86.0421   15.9139 C.3     1  UNL1        0.0978
     24 C          63.2624   85.5481   17.2193 C.3     1  UNL1        0.0224
     25 C          62.7072   86.5220   18.2159 C.3     1  UNL1        0.0065
     26 C          62.7015   87.9899   17.9072 C.3     1  UNL1        0.0277
     27 C          63.2510   88.4839   16.6018 C.ar    1  UNL1       -0.0073
     28 C          63.2453   89.9517   16.2931 C.ar    1  UNL1       -0.0015
     29 C          63.7947   90.4457   14.9877 C.ar    1  UNL1        0.0203
     30 C          64.3499   89.4718   13.9911 C.ar    1  UNL1        0.0985
     31 N          64.3556   88.0040   14.2998 N.ar    1  UNL1       -0.2471
     32 C          63.8061   87.5100   15.6051 C.ar    1  UNL1        0.0695
@<TRIPOS>BOND
     1    21    22    1
     2    22    20    1
     3     1    20    1
     4     1     2    1
     5     2     3    1
     6     3     4   ar
     7     4     5   ar
     8     5     6   ar
     9     6     7   ar
    10     7     8   ar
    11     8    12    1
    12    12    13    1
    13    14    13    1
    14    14    15    1
    15    15    16    1
    16    16    17    1
    17    17    18    1
    18     4     9    1
    19     9    10    1
    20    23    22    1
    21    23    24    1
    22    24    25    1
    23    25    26    1
    24    26    27    1
    25    27    28   ar
    26    28    29   ar
    27    29    30   ar
    28    30    31   ar
    29    31    32   ar
    30    10     1    1
    31    32    23    1
    32     8     3   ar
    33    16    12    1
    34    32    27   ar
    35    18    14    1
    36    18    19    1
    37    10    11    1
@<TRIPOS>MOLECULE
*****
 32 37 0 0 0
SMALL
GASTEIGER

@<TRIPOS>ATOM
      1 C          62.1128   87.4949   10.6360 C.3     1  UNL1        0.0749
      2 C          62.4780   86.4973   11.6950 C.3     1  UNL1        0.0444
      3 C          62.9733   85.1364   11.3044 C.ar    1  UNL1       -0.0101
      4 C          63.1033   84.7730    9.8549 C.ar    1  UNL1       -0.0091
      5 C          63.5986   83.4120    9.4643 C.ar    1  UNL1       -0.0032
      6 C          63.9638   82.4145   10.5233 C.ar    1  UNL1        0.0010
      7 C          63.8338   82.7778   11.9728 C.ar    1  UNL1        0.0142
      8 C          63.3385   84.1387   12.3634 C.ar    1  UNL1        0.0436
      9 C          62.7381   85.7706    8.7960 C.3     1  UNL1        0.0954
     10 N          62.2429   87.1315    9.1865 N.3     1  UNL1       -0.2934
     11 H          61.3170   87.2381    8.7721 H       1  UNL1        0.1236
     12 N          63.2085   84.5020   13.8129 N.pl3   1  UNL1       -0.3066
     13 C          62.2378   83.9046   14.7880 C.3     1  UNL1        0.1064
     14 C          62.4557   84.5599   16.1195 C.3     1  UNL1        0.0757
     15 C          62.9209   84.5241   14.6940 C.3     1  UNL1        0.0386
     16 C          64.0263   85.5266   14.5418 C.3     1  UNL1        0.0899
     17 C          64.2442   86.1820   15.8734 C.3     1  UNL1        0.0886
     18 N          63.2735   85.5845   16.8484 N.3     1  UNL1       -0.2957
     19 H          62.6641   86.3129   17.2206 H       1  UNL1        0.1233
     20 C          61.6176   88.8559   11.0266 C.3     1  UNL1        0.0886
     21 C          62.5960   90.9289    9.8037 C.3     1  UNL1        0.0899
     22 N          62.5518   90.0292   11.0032 N.3     1  UNL1       -0.2667
     23 C          63.4418   90.3028   12.1792 C.3     1  UNL1        0.0978
     24 C          63.3571   89.4373   13.4013 C.3     1  UNL1        0.0224
     25 C          64.2471   89.7109   14.5773 C.3     1  UNL1        0.0065
     26 C          65.2219   90.8500   14.5312 C.3     1  UNL1        0.0277
     27 C          65.3066   91.7156   13.3090 C.ar    1  UNL1       -0.0073
     28 C          66.2814   92.8548   13.2629 C.ar    1  UNL1       -0.0015
     29 C          66.3661   93.7203   12.0408 C.ar    1  UNL1        0.0203
     30 C          65.4761   93.4467   10.8648 C.ar    1  UNL1        0.0985
     31 N          64.5013   92.3075   10.9109 N.ar    1  UNL1       -0.2471
     32 C          64.4166   91.4420   12.1330 C.ar    1  UNL1        0.0695
@<TRIPOS>BOND
     1    21    22    1
     2    22    20    1
     3     1    20    1
     4     1     2    1
     5     2     3    1
     6     3     4   ar
     7     4     5   ar
     8     5     6   ar
     9     6     7   ar
    10     7     8   ar
    11     8    12    1
    12    12    13    1
    13    14    13    1
    14    14    15    1
    15    15    16    1
    16    16    17    1
    17    17    18    1
    18     4     9    1
    19     9    10    1
    20    23    22    1
    21    23    24    1
    22    24    25    1
    23    25    26    1
    24    26    27    1
    25    27    28   ar
    26    28    29   ar
    27    29    30   ar
    28    30    31   ar
    29    31    32   ar
    30    10     1    1
    31    32    23    1
    32     8     3   ar
    33    16    12    1
    34    32    27   ar
    35    18    14    1
    36    18    19    1
    37    10    11    1
