@<TRIPOS>MOLECULE
*****
 37 42 0 0 0
SMALL
GASTEIGER

@<TRIPOS>ATOM
      1 C          62.8820   86.3202   12.5506 C.3     1  UNL1        0.0749
      2 C          62.9490   87.7202   12.0164 C.3     1  UNL1        0.0444
      3 C          62.0545   88.1352   10.8861 C.ar    1  UNL1       -0.0101
      4 C          61.0930   87.1503   10.2900 C.ar    1  UNL1       -0.0091
      5 C          60.1985   87.5654    9.1596 C.ar    1  UNL1       -0.0032
      6 C          60.2655   88.9654    8.6254 C.ar    1  UNL1        0.0010
      7 C          61.2270   89.9503    9.2215 C.ar    1  UNL1        0.0142
      8 C          62.1215   89.5353   10.3518 C.ar    1  UNL1        0.0436
      9 C          61.0260   85.7503   10.8242 C.3     1  UNL1        0.0954
     10 N          61.9205   85.3352   11.9545 N.3     1  UNL1       -0.2934
     11 H          62.4757   84.5490   11.6171 H       1  UNL1        0.1236
     12 N          63.0830   90.5203   10.9479 N.pl3   1  UNL1       -0.3049
     13 C          63.3238   90.5315   12.4284 C.3     1  UNL1        0.1081
     14 C          64.2853   91.5164   13.0245 C.3     1  UNL1        0.0941
     15 N          65.0060   92.4903   12.1400 N.3     1  UNL1       -0.2647
     16 C          64.7653   92.4791   10.6596 C.3     1  UNL1        0.0941
     17 C          63.8038   91.4941   10.0635 C.3     1  UNL1        0.1081
     18 C          65.9675   93.4753   12.7361 C.3     1  UNL1        0.1187
     19 C          66.8653   93.0588   13.8634 C.ar    1  UNL1        0.0752
     20 C          66.4053   93.2088   15.2832 C.ar    1  UNL1        0.0161
     21 C          67.3030   92.7924   16.4103 C.ar    1  UNL1        0.0028
     22 C          68.6609   92.2260   16.1177 C.ar    1  UNL1        0.0207
     23 C          69.1209   92.0761   14.6980 C.ar    1  UNL1        0.0985
     24 N          68.2231   92.4925   13.5708 N.ar    1  UNL1       -0.2468
     25 C          63.7765   85.9051   13.6810 C.3     1  UNL1        0.0886
     26 C          65.7267   84.4070   14.5190 C.3     1  UNL1        0.0899
     27 N          64.5886   84.6487   13.5722 N.3     1  UNL1       -0.2667
     28 C          64.2627   83.6340   12.5167 C.3     1  UNL1        0.0978
     29 C          64.7183   83.8487   11.1038 C.3     1  UNL1        0.0224
     30 C          64.3924   82.8340   10.0483 C.3     1  UNL1        0.0065
     31 C          63.6108   81.6046   10.4056 C.3     1  UNL1        0.0277
     32 C          63.1551   81.3899   11.8186 C.ar    1  UNL1       -0.0073
     33 C          62.3735   80.1605   12.1759 C.ar    1  UNL1       -0.0015
     34 C          61.9178   79.9459   13.5888 C.ar    1  UNL1        0.0203
     35 C          62.2438   80.9606   14.6443 C.ar    1  UNL1        0.0985
     36 N          63.0253   82.1899   14.2870 N.ar    1  UNL1       -0.2471
     37 C          63.4810   82.4046   12.8741 C.ar    1  UNL1        0.0695
@<TRIPOS>BOND
     1    26    27    1
     2    27    25    1
     3     1    25    1
     4     1     2    1
     5     2     3    1
     6     3     4   ar
     7     4     5   ar
     8     5     6   ar
     9     6     7   ar
    10     7     8   ar
    11     8    12    1
    12    12    13    1
    13    13    14    1
    14    14    15    1
    15    15    18    1
    16    18    19    1
    17    19    20   ar
    18    20    21   ar
    19    21    22   ar
    20    22    23   ar
    21    23    24   ar
    22    15    16    1
    23    16    17    1
    24     4     9    1
    25     9    10    1
    26    28    27    1
    27    28    29    1
    28    29    30    1
    29    30    31    1
    30    31    32    1
    31    32    33   ar
    32    33    34   ar
    33    34    35   ar
    34    35    36   ar
    35    36    37   ar
    36    10     1    1
    37    37    28    1
    38     8     3   ar
    39    17    12    1
    40    37    32   ar
    41    24    19   ar
    42    10    11    1
@<TRIPOS>MOLECULE
*****
 37 42 0 0 0
SMALL
GASTEIGER

@<TRIPOS>ATOM
      1 C          62.9104   86.3850   12.3142 C.3     1  UNL1        0.0749
      2 C          62.9614   87.8161   11.8678 C.3     1  UNL1        0.0444
      3 C          61.9892   88.3166   10.8411 C.ar    1  UNL1       -0.0101
      4 C          60.9660   87.3859   10.2607 C.ar    1  UNL1       -0.0091
      5 C          59.9937   87.8864    9.2339 C.ar    1  UNL1       -0.0032
      6 C          60.0447   89.3175    8.7875 C.ar    1  UNL1        0.0010
      7 C          61.0679   90.2482    9.3679 C.ar    1  UNL1        0.0142
      8 C          62.0402   89.7477   10.3947 C.ar    1  UNL1        0.0436
      9 C          60.9150   85.9548   10.7070 C.3     1  UNL1        0.0954
     10 N          61.8872   85.4543   11.7337 N.3     1  UNL1       -0.2934
     11 H          62.3998   84.6846   11.3034 H       1  UNL1        0.1236
     12 N          63.0634   90.6784   10.9751 N.pl3   1  UNL1       -0.3049
     13 C          63.3539   90.6502   12.4465 C.3     1  UNL1        0.1081
     14 C          64.3771   91.5809   13.0269 C.3     1  UNL1        0.0941
     15 N          65.1099   92.5397   12.1359 N.3     1  UNL1       -0.2647
     16 C          64.8194   92.5679   10.6646 C.3     1  UNL1        0.0941
     17 C          63.7961   91.6372   10.0842 C.3     1  UNL1        0.1081
     18 C          66.1331   93.4704   12.7163 C.3     1  UNL1        0.1187
     19 C          66.9212   93.0591   13.9246 C.ar    1  UNL1        0.0752
     20 C          66.2904   93.1099   15.2845 C.ar    1  UNL1        0.0161
     21 C          67.0785   92.6986   16.4926 C.ar    1  UNL1        0.0028
     22 C          68.4975   92.2366   16.3409 C.ar    1  UNL1        0.0207
     23 C          69.1284   92.1859   14.9810 C.ar    1  UNL1        0.0985
     24 N          68.3402   92.5971   13.7728 N.ar    1  UNL1       -0.2468
     25 C          63.8827   85.8845   13.3410 C.3     1  UNL1        0.0886
     26 C          63.4955   85.3103   15.8451 C.3     1  UNL1        0.0899
     27 N          63.4282   84.9219   14.3977 N.3     1  UNL1       -0.2667
     28 C          62.9065   83.5708   14.0073 C.3     1  UNL1        0.0978
     29 C          61.9962   82.8216   14.9346 C.3     1  UNL1        0.0224
     30 C          61.4744   81.4706   14.5442 C.3     1  UNL1        0.0065
     31 C          61.8629   80.8688   13.2263 C.3     1  UNL1        0.0277
     32 C          62.7732   81.6179   12.2989 C.ar    1  UNL1       -0.0073
     33 C          63.1617   81.0161   10.9810 C.ar    1  UNL1       -0.0015
     34 C          64.0720   81.7653   10.0536 C.ar    1  UNL1        0.0203
     35 C          64.5938   83.1163   10.4441 C.ar    1  UNL1        0.0985
     36 N          64.2053   83.7182   11.7619 N.ar    1  UNL1       -0.2471
     37 C          63.2950   82.9690   12.6893 C.ar    1  UNL1        0.0695
@<TRIPOS>BOND
     1    26    27    1
     2    27    25    1
     3     1    25    1
     4     1     2    1
     5     2     3    1
     6     3     4   ar
     7     4     5   ar
     8     5     6   ar
     9     6     7   ar
    10     7     8   ar
    11     8    12    1
    12    12    13    1
    13    13    14    1
    14    14    15    1
    15    15    18    1
    16    18    19    1
    17    19    20   ar
    18    20    21   ar
    19    21    22   ar
    20    22    23   ar
    21    23    24   ar
    22    15    16    1
    23    16    17    1
    24     4     9    1
    25     9    10    1
    26    28    27    1
    27    28    29    1
    28    29    30    1
    29    30    31    1
    30    31    32    1
    31    32    33   ar
    32    33    34   ar
    33    34    35   ar
    34    35    36   ar
    35    36    37   ar
    36    10     1    1
    37    37    28    1
    38     8     3   ar
    39    17    12    1
    40    37    32   ar
    41    24    19   ar
    42    10    11    1
@<TRIPOS>MOLECULE
*****
 37 42 0 0 0
SMALL
GASTEIGER

@<TRIPOS>ATOM
      1 C          61.3725   89.7241   12.0546 C.3     1  UNL1        0.0749
      2 C          61.5230   88.4981   11.2036 C.3     1  UNL1        0.0444
      3 C          60.8336   88.4190    9.8738 C.ar    1  UNL1       -0.0101
      4 C          59.9938   89.5659    9.3950 C.ar    1  UNL1       -0.0091
      5 C          59.3044   89.4868    8.0651 C.ar    1  UNL1       -0.0032
      6 C          59.4549   88.2608    7.2141 C.ar    1  UNL1        0.0010
      7 C          60.2947   87.1139    7.6929 C.ar    1  UNL1        0.0142
      8 C          60.9841   87.1930    9.0227 C.ar    1  UNL1        0.0436
      9 C          59.8433   90.7919   10.2460 C.3     1  UNL1        0.0954
     10 N          60.5327   90.8710   11.5758 N.3     1  UNL1       -0.2934
     11 H          59.8055   91.0161   12.2762 H       1  UNL1        0.1236
     12 N          61.8239   86.0461    9.5015 N.pl3   1  UNL1       -0.3049
     13 C          62.8279   85.4164    8.5819 C.3     1  UNL1        0.1081
     14 C          63.6678   84.2695    9.0607 C.3     1  UNL1        0.0941
     15 N          63.5036   83.7523   10.4592 N.3     1  UNL1       -0.2647
     16 C          62.4997   84.3819   11.3787 C.3     1  UNL1        0.0941
     17 C          61.6599   85.5288   10.8999 C.3     1  UNL1        0.1081
     18 C          64.3435   82.6054   10.9380 C.3     1  UNL1        0.1187
     19 C          63.7923   81.6421   11.9472 C.ar    1  UNL1        0.0752
     20 C          62.9966   80.4542   11.4936 C.ar    1  UNL1        0.0161
     21 C          62.4454   79.4911   12.5028 C.ar    1  UNL1        0.0028
     22 C          62.6899   79.7159   13.9656 C.ar    1  UNL1        0.0207
     23 C          63.4855   80.9038   14.4192 C.ar    1  UNL1        0.0985
     24 N          64.0367   81.8669   13.4100 N.ar    1  UNL1       -0.2468
     25 C          62.0619   89.8032   13.3845 C.3     1  UNL1        0.0886
     26 C          64.3142   88.7591   14.1509 C.3     1  UNL1        0.0899
     27 N          63.5597   89.8506   13.4512 N.3     1  UNL1       -0.2667
     28 C          64.3030   90.9895   12.8184 C.3     1  UNL1        0.0978
     29 C          64.1110   91.2933   11.3621 C.3     1  UNL1        0.0224
     30 C          64.8543   92.4322   10.7292 C.3     1  UNL1        0.0065
     31 C          65.7896   93.2671   11.5526 C.3     1  UNL1        0.0277
     32 C          65.9816   92.9633   13.0090 C.ar    1  UNL1       -0.0073
     33 C          66.9169   93.7982   13.8324 C.ar    1  UNL1       -0.0015
     34 C          67.1089   93.4943   15.2886 C.ar    1  UNL1        0.0203
     35 C          66.3656   92.3555   15.9215 C.ar    1  UNL1        0.0985
     36 N          65.4303   91.5205   15.0981 N.ar    1  UNL1       -0.2471
     37 C          65.2383   91.8244   13.6419 C.ar    1  UNL1        0.0695
@<TRIPOS>BOND
     1    26    27    1
     2    27    25    1
     3     1    25    1
     4     1     2    1
     5     2     3    1
     6     3     4   ar
     7     4     5   ar
     8     5     6   ar
     9     6     7   ar
    10     7     8   ar
    11     8    12    1
    12    12    13    1
    13    13    14    1
    14    14    15    1
    15    15    18    1
    16    18    19    1
    17    19    20   ar
    18    20    21   ar
    19    21    22   ar
    20    22    23   ar
    21    23    24   ar
    22    15    16    1
    23    16    17    1
    24     4     9    1
    25     9    10    1
    26    28    27    1
    27    28    29    1
    28    29    30    1
    29    30    31    1
    30    31    32    1
    31    32    33   ar
    32    33    34   ar
    33    34    35   ar
    34    35    36   ar
    35    36    37   ar
    36    10     1    1
    37    37    28    1
    38     8     3   ar
    39    17    12    1
    40    37    32   ar
    41    24    19   ar
    42    10    11    1
@<TRIPOS>MOLECULE
*****
 37 42 0 0 0
SMALL
GASTEIGER

@<TRIPOS>ATOM
      1 C          63.2736   83.8247   10.2771 C.3     1  UNL1        0.0749
      2 C          63.1581   83.8639   11.7721 C.3     1  UNL1        0.0444
      3 C          62.9911   82.5893   12.5451 C.ar    1  UNL1       -0.0101
      4 C          62.9397   81.2755   11.8230 C.ar    1  UNL1       -0.0091
      5 C          62.7727   80.0009   12.5961 C.ar    1  UNL1       -0.0032
      6 C          62.6572   80.0401   14.0911 C.ar    1  UNL1        0.0010
      7 C          62.7086   81.3539   14.8131 C.ar    1  UNL1        0.0142
      8 C          62.8756   82.6284   14.0402 C.ar    1  UNL1        0.0436
      9 C          63.0552   81.2363   10.3280 C.3     1  UNL1        0.0954
     10 N          63.2222   82.5109    9.5551 N.3     1  UNL1       -0.2934
     11 H          62.4401   82.5640    8.9024 H       1  UNL1        0.1236
     12 N          62.9270   83.9422   14.7622 N.pl3   1  UNL1       -0.3049
     13 C          61.7606   84.3871   15.5939 C.3     1  UNL1        0.1081
     14 C          61.8121   85.7009   16.3159 C.3     1  UNL1        0.0941
     15 N          63.0299   86.5698   16.2063 N.3     1  UNL1       -0.2647
     16 C          64.1963   86.1249   15.3746 C.3     1  UNL1        0.0941
     17 C          64.1448   84.8111   14.6526 C.3     1  UNL1        0.1081
     18 C          63.0814   87.8836   16.9283 C.3     1  UNL1        0.1187
     19 C          63.5724   89.1106   16.2188 C.ar    1  UNL1        0.0752
     20 C          64.1567   88.9975   14.8419 C.ar    1  UNL1        0.0161
     21 C          64.6477   90.2245   14.1324 C.ar    1  UNL1        0.0028
     22 C          64.5544   91.5646   14.7998 C.ar    1  UNL1        0.0207
     23 C          63.9701   91.6777   16.1767 C.ar    1  UNL1        0.0985
     24 N          63.4791   90.4507   16.8862 N.ar    1  UNL1       -0.2468
     25 C          63.4406   85.0993    9.5041 C.3     1  UNL1        0.0886
     26 C          62.9142   84.7731    6.9808 C.3     1  UNL1        0.0899
     27 N          62.5718   85.3730    8.3124 N.3     1  UNL1       -0.2667
     28 C          61.3605   86.2466    8.4521 C.3     1  UNL1        0.0978
     29 C          60.1519   85.9949    7.6000 C.3     1  UNL1        0.0224
     30 C          58.9406   86.8685    7.7398 C.3     1  UNL1        0.0065
     31 C          58.9378   87.9938    8.7316 C.3     1  UNL1        0.0277
     32 C          60.1464   88.2455    9.5837 C.ar    1  UNL1       -0.0073
     33 C          60.1436   89.3708   10.5756 C.ar    1  UNL1       -0.0015
     34 C          61.3522   89.6224   11.4276 C.ar    1  UNL1        0.0203
     35 C          62.5635   88.7488   11.2879 C.ar    1  UNL1        0.0985
     36 N          62.5663   87.6235   10.2961 N.ar    1  UNL1       -0.2471
     37 C          61.3577   87.3719    9.4440 C.ar    1  UNL1        0.0695
@<TRIPOS>BOND
     1    26    27    1
     2    27    25    1
     3     1    25    1
     4     1     2    1
     5     2     3    1
     6     3     4   ar
     7     4     5   ar
     8     5     6   ar
     9     6     7   ar
    10     7     8   ar
    11     8    12    1
    12    12    13    1
    13    13    14    1
    14    14    15    1
    15    15    18    1
    16    18    19    1
    17    19    20   ar
    18    20    21   ar
    19    21    22   ar
    20    22    23   ar
    21    23    24   ar
    22    15    16    1
    23    16    17    1
    24     4     9    1
    25     9    10    1
    26    28    27    1
    27    28    29    1
    28    29    30    1
    29    30    31    1
    30    31    32    1
    31    32    33   ar
    32    33    34   ar
    33    34    35   ar
    34    35    36   ar
    35    36    37   ar
    36    10     1    1
    37    37    28    1
    38     8     3   ar
    39    17    12    1
    40    37    32   ar
    41    24    19   ar
    42    10    11    1
@<TRIPOS>MOLECULE
*****
 37 42 0 0 0
SMALL
GASTEIGER

@<TRIPOS>ATOM
      1 C          62.7907   85.1457    9.5776 C.3     1  UNL1        0.0749
      2 C          62.4442   86.5756    9.8697 C.3     1  UNL1        0.0444
      3 C          61.3815   87.2683    9.0692 C.ar    1  UNL1       -0.0101
      4 C          60.6653   86.5311    7.9767 C.ar    1  UNL1       -0.0091
      5 C          59.6025   87.2238    7.1762 C.ar    1  UNL1       -0.0032
      6 C          59.2560   88.6537    7.4682 C.ar    1  UNL1        0.0010
      7 C          59.9722   89.3909    8.5608 C.ar    1  UNL1        0.0142
      8 C          61.0349   88.6982    9.3612 C.ar    1  UNL1        0.0436
      9 C          61.0118   85.1012    7.6846 C.3     1  UNL1        0.0954
     10 N          62.0745   84.4085    8.4851 N.3     1  UNL1       -0.2934
     11 H          62.7862   84.0984    7.8235 H       1  UNL1        0.1236
     12 N          61.7511   89.4354   10.4538 N.pl3   1  UNL1       -0.3049
     13 C          62.7709   90.4803   10.1099 C.3     1  UNL1        0.1081
     14 C          63.4871   91.2174   11.2025 C.3     1  UNL1        0.0941
     15 N          63.1834   90.9098   12.6389 N.3     1  UNL1       -0.2647
     16 C          62.1636   89.8649   12.9827 C.3     1  UNL1        0.0941
     17 C          61.4474   89.1278   11.8901 C.3     1  UNL1        0.1081
     18 C          63.8996   91.6469   13.7314 C.3     1  UNL1        0.1187
     19 C          65.3959   91.7505   13.7104 C.ar    1  UNL1        0.0752
     20 C          66.1833   91.4911   14.9605 C.ar    1  UNL1        0.0161
     21 C          67.6795   91.5946   14.9394 C.ar    1  UNL1        0.0028
     22 C          68.3884   91.9575   13.6683 C.ar    1  UNL1        0.0207
     23 C          67.6011   92.2169   12.4182 C.ar    1  UNL1        0.0985
     24 N          66.1048   92.1134   12.4393 N.ar    1  UNL1       -0.2468
     25 C          63.8534   84.4529   10.3781 C.3     1  UNL1        0.0886
     26 C          64.1530   81.9267    9.8504 C.3     1  UNL1        0.0899
     27 N          63.6807   83.0150   10.7684 N.3     1  UNL1       -0.2667
     28 C          63.0357   82.6652   12.0767 C.3     1  UNL1        0.0978
     29 C          62.2247   81.4096   12.2011 C.3     1  UNL1        0.0224
     30 C          61.5797   81.0598   13.5094 C.3     1  UNL1        0.0065
     31 C          61.7457   81.9657   14.6933 C.3     1  UNL1        0.0277
     32 C          62.5568   83.2214   14.5690 C.ar    1  UNL1       -0.0073
     33 C          62.7229   84.1273   15.7529 C.ar    1  UNL1       -0.0015
     34 C          63.5339   85.3830   15.6285 C.ar    1  UNL1        0.0203
     35 C          64.1789   85.7327   14.3202 C.ar    1  UNL1        0.0985
     36 N          64.0128   84.8268   13.1363 N.ar    1  UNL1       -0.2471
     37 C          63.2018   83.5712   13.2607 C.ar    1  UNL1        0.0695
@<TRIPOS>BOND
     1    26    27    1
     2    27    25    1
     3     1    25    1
     4     1     2    1
     5     2     3    1
     6     3     4   ar
     7     4     5   ar
     8     5     6   ar
     9     6     7   ar
    10     7     8   ar
    11     8    12    1
    12    12    13    1
    13    13    14    1
    14    14    15    1
    15    15    18    1
    16    18    19    1
    17    19    20   ar
    18    20    21   ar
    19    21    22   ar
    20    22    23   ar
    21    23    24   ar
    22    15    16    1
    23    16    17    1
    24     4     9    1
    25     9    10    1
    26    28    27    1
    27    28    29    1
    28    29    30    1
    29    30    31    1
    30    31    32    1
    31    32    33   ar
    32    33    34   ar
    33    34    35   ar
    34    35    36   ar
    35    36    37   ar
    36    10     1    1
    37    37    28    1
    38     8     3   ar
    39    17    12    1
    40    37    32   ar
    41    24    19   ar
    42    10    11    1
@<TRIPOS>MOLECULE
*****
 37 42 0 0 0
SMALL
GASTEIGER

@<TRIPOS>ATOM
      1 C          61.4015   89.7245   12.1995 C.3     1  UNL1        0.0749
      2 C          61.5691   88.4948   11.3572 C.3     1  UNL1        0.0444
      3 C          60.9161   88.4144   10.0092 C.ar    1  UNL1       -0.0101
      4 C          60.0956   89.5637    9.5036 C.ar    1  UNL1       -0.0091
      5 C          59.4426   89.4833    8.1555 C.ar    1  UNL1       -0.0032
      6 C          59.6101   88.2535    7.3132 C.ar    1  UNL1        0.0010
      7 C          60.4307   87.1041    7.8188 C.ar    1  UNL1        0.0142
      8 C          61.0837   87.1845    9.1668 C.ar    1  UNL1        0.0436
      9 C          59.9280   90.7935   10.3459 C.3     1  UNL1        0.0954
     10 N          60.5810   90.8739   11.6939 N.3     1  UNL1       -0.2934
     11 H          59.8356   91.0251   12.3735 H       1  UNL1        0.1236
     12 N          61.9042   86.0352    9.6725 N.pl3   1  UNL1       -0.3049
     13 C          62.8619   85.3359    8.7538 C.3     1  UNL1        0.1081
     14 C          63.6824   84.1865    9.2595 C.3     1  UNL1        0.0941
     15 N          63.5453   83.7365   10.6838 N.3     1  UNL1       -0.2647
     16 C          62.5876   84.4357   11.6024 C.3     1  UNL1        0.0941
     17 C          61.7671   85.5851   11.0967 C.3     1  UNL1        0.1081
     18 C          64.3658   82.5871   11.1895 C.3     1  UNL1        0.1187
     19 C          63.7422   81.5564   12.0833 C.ar    1  UNL1        0.0752
     20 C          63.8322   81.7026   13.5734 C.ar    1  UNL1        0.0161
     21 C          63.2087   80.6719   14.4671 C.ar    1  UNL1        0.0028
     22 C          62.4951   79.4950   13.8708 C.ar    1  UNL1        0.0207
     23 C          62.4051   79.3487   12.3807 C.ar    1  UNL1        0.0985
     24 N          63.0287   80.3794   11.4869 N.ar    1  UNL1       -0.2468
     25 C          62.0545   89.8050   13.5476 C.3     1  UNL1        0.0886
     26 C          64.1013   88.2050   13.5799 C.3     1  UNL1        0.0899
     27 N          63.5332   89.5898   13.6787 N.3     1  UNL1       -0.2667
     28 C          64.4438   90.7594   13.9087 C.3     1  UNL1        0.0978
     29 C          64.9898   91.0266   15.2799 C.3     1  UNL1        0.0224
     30 C          65.9004   92.1961   15.5099 C.3     1  UNL1        0.0065
     31 C          66.2651   93.0985   14.3685 C.3     1  UNL1        0.0277
     32 C          65.7191   92.8313   12.9972 C.ar    1  UNL1       -0.0073
     33 C          66.0837   93.7337   11.8558 C.ar    1  UNL1       -0.0015
     34 C          65.5377   93.4665   10.4845 C.ar    1  UNL1        0.0203
     35 C          64.6271   92.2970   10.2546 C.ar    1  UNL1        0.0985
     36 N          64.2624   91.3946   11.3960 N.ar    1  UNL1       -0.2471
     37 C          64.8084   91.6618   12.7672 C.ar    1  UNL1        0.0695
@<TRIPOS>BOND
     1    26    27    1
     2    27    25    1
     3     1    25    1
     4     1     2    1
     5     2     3    1
     6     3     4   ar
     7     4     5   ar
     8     5     6   ar
     9     6     7   ar
    10     7     8   ar
    11     8    12    1
    12    12    13    1
    13    13    14    1
    14    14    15    1
    15    15    18    1
    16    18    19    1
    17    19    20   ar
    18    20    21   ar
    19    21    22   ar
    20    22    23   ar
    21    23    24   ar
    22    15    16    1
    23    16    17    1
    24     4     9    1
    25     9    10    1
    26    28    27    1
    27    28    29    1
    28    29    30    1
    29    30    31    1
    30    31    32    1
    31    32    33   ar
    32    33    34   ar
    33    34    35   ar
    34    35    36   ar
    35    36    37   ar
    36    10     1    1
    37    37    28    1
    38     8     3   ar
    39    17    12    1
    40    37    32   ar
    41    24    19   ar
    42    10    11    1
@<TRIPOS>MOLECULE
*****
 37 42 0 0 0
SMALL
GASTEIGER

@<TRIPOS>ATOM
      1 C          63.3741   84.3095   10.1441 C.3     1  UNL1        0.0749
      2 C          63.4251   84.7639   11.5727 C.3     1  UNL1        0.0444
      3 C          63.3240   83.7603   12.6829 C.ar    1  UNL1       -0.0101
      4 C          63.1718   82.3024   12.3645 C.ar    1  UNL1       -0.0091
      5 C          63.0707   81.2989   13.4749 C.ar    1  UNL1       -0.0032
      6 C          63.1218   81.7532   14.9034 C.ar    1  UNL1        0.0010
      7 C          63.2739   83.2111   15.2218 C.ar    1  UNL1        0.0142
      8 C          63.3751   84.2147   14.1116 C.ar    1  UNL1        0.0436
      9 C          63.1208   81.8481   10.9360 C.3     1  UNL1        0.0954
     10 N          63.2219   82.8516    9.8257 N.3     1  UNL1       -0.2934
     11 H          62.3735   82.7592    9.2671 H       1  UNL1        0.1236
     12 N          63.5273   85.6726   14.4299 N.pl3   1  UNL1       -0.3049
     13 C          63.7578   86.6613   13.3257 C.3     1  UNL1        0.1081
     14 C          63.9100   88.1192   13.6440 C.3     1  UNL1        0.0941
     15 N          63.8316   88.5884   15.0667 N.3     1  UNL1       -0.2647
     16 C          63.6011   87.5997   16.1708 C.3     1  UNL1        0.0941
     17 C          63.4489   86.1418   15.8525 C.3     1  UNL1        0.1081
     18 C          63.9838   90.0463   15.3850 C.3     1  UNL1        0.1187
     19 C          64.8072   90.9269   14.4925 C.ar    1  UNL1        0.0752
     20 C          66.2362   91.2213   14.8407 C.ar    1  UNL1        0.0161
     21 C          67.0595   92.1018   13.9481 C.ar    1  UNL1        0.0028
     22 C          66.4539   92.6880   12.7073 C.ar    1  UNL1        0.0207
     23 C          65.0249   92.3937   12.3591 C.ar    1  UNL1        0.0985
     24 N          64.2016   91.5131   13.2517 N.ar    1  UNL1       -0.2468
     25 C          63.4752   85.3130    9.0338 C.3     1  UNL1        0.0886
     26 C          62.5777   84.5277    6.7256 C.3     1  UNL1        0.0899
     27 N          62.4234   85.3580    7.9653 N.3     1  UNL1       -0.2667
     28 C          61.2172   86.2331    8.1366 C.3     1  UNL1        0.0978
     29 C          59.9233   85.8651    7.4730 C.3     1  UNL1        0.0224
     30 C          58.7172   86.7402    7.6443 C.3     1  UNL1        0.0065
     31 C          58.8049   87.9833    8.4790 C.3     1  UNL1        0.0277
     32 C          60.0989   88.3514    9.1426 C.ar    1  UNL1       -0.0073
     33 C          60.1866   89.5945    9.9774 C.ar    1  UNL1       -0.0015
     34 C          61.4805   89.9625   10.6409 C.ar    1  UNL1        0.0203
     35 C          62.6867   89.0874   10.4697 C.ar    1  UNL1        0.0985
     36 N          62.5989   87.8443    9.6349 N.ar    1  UNL1       -0.2471
     37 C          61.3050   87.4763    8.9714 C.ar    1  UNL1        0.0695
@<TRIPOS>BOND
     1    26    27    1
     2    27    25    1
     3     1    25    1
     4     1     2    1
     5     2     3    1
     6     3     4   ar
     7     4     5   ar
     8     5     6   ar
     9     6     7   ar
    10     7     8   ar
    11     8    12    1
    12    12    13    1
    13    13    14    1
    14    14    15    1
    15    15    18    1
    16    18    19    1
    17    19    20   ar
    18    20    21   ar
    19    21    22   ar
    20    22    23   ar
    21    23    24   ar
    22    15    16    1
    23    16    17    1
    24     4     9    1
    25     9    10    1
    26    28    27    1
    27    28    29    1
    28    29    30    1
    29    30    31    1
    30    31    32    1
    31    32    33   ar
    32    33    34   ar
    33    34    35   ar
    34    35    36   ar
    35    36    37   ar
    36    10     1    1
    37    37    28    1
    38     8     3   ar
    39    17    12    1
    40    37    32   ar
    41    24    19   ar
    42    10    11    1
@<TRIPOS>MOLECULE
*****
 37 42 0 0 0
SMALL
GASTEIGER

@<TRIPOS>ATOM
      1 C          64.0491   90.5197   12.3645 C.3     1  UNL1        0.0749
      2 C          63.1503   89.5180   11.7021 C.3     1  UNL1        0.0444
      3 C          63.0658   88.1184   12.2349 C.ar    1  UNL1       -0.0101
      4 C          63.8802   87.7204   13.4301 C.ar    1  UNL1       -0.0091
      5 C          63.7958   86.3207   13.9628 C.ar    1  UNL1       -0.0032
      6 C          62.8970   85.3191   13.3005 C.ar    1  UNL1        0.0010
      7 C          62.0826   85.7170   12.1053 C.ar    1  UNL1        0.0142
      8 C          62.1670   87.1166   11.5725 C.ar    1  UNL1        0.0436
      9 C          64.7790   88.7221   14.0924 C.3     1  UNL1        0.0954
     10 N          64.8635   90.1217   13.5596 N.3     1  UNL1       -0.2934
     11 H          65.8407   90.2864   13.3181 H       1  UNL1        0.1236
     12 N          61.3526   87.5146   10.3774 N.pl3   1  UNL1       -0.3049
     13 C          61.2248   86.5792    9.2117 C.3     1  UNL1        0.1081
     14 C          60.4104   86.9771    8.0165 C.3     1  UNL1        0.0941
     15 N          59.7238   88.3105    7.9870 N.3     1  UNL1       -0.2647
     16 C          59.8517   89.2458    9.1527 C.3     1  UNL1        0.0941
     17 C          60.6661   88.8479   10.3478 C.3     1  UNL1        0.1081
     18 C          58.9094   88.7084    6.7919 C.3     1  UNL1        0.1187
     19 C          59.2911   89.9200    5.9940 C.ar    1  UNL1        0.0752
     20 C          60.7139   90.1155    5.5614 C.ar    1  UNL1        0.0161
     21 C          61.0955   91.3270    4.7635 C.ar    1  UNL1        0.0028
     22 C          60.0541   92.3430    4.3982 C.ar    1  UNL1        0.0207
     23 C          58.6313   92.1474    4.8308 C.ar    1  UNL1        0.0985
     24 N          58.2497   90.9359    5.6286 N.ar    1  UNL1       -0.2468
     25 C          64.1335   91.9194   11.8317 C.3     1  UNL1        0.0886
     26 C          65.6373   93.3147   13.4260 C.3     1  UNL1        0.0899
     27 N          65.3678   92.7384   12.0675 N.3     1  UNL1       -0.2667
     28 C          66.3326   92.9812   10.9450 C.3     1  UNL1        0.0978
     29 C          67.3430   91.9328   10.5844 C.3     1  UNL1        0.0224
     30 C          68.3078   92.1756    9.4619 C.3     1  UNL1        0.0065
     31 C          68.2623   93.4668    8.6999 C.3     1  UNL1        0.0277
     32 C          67.2520   94.5153    9.0604 C.ar    1  UNL1       -0.0073
     33 C          67.2065   95.8065    8.2984 C.ar    1  UNL1       -0.0015
     34 C          66.1961   96.8549    8.6589 C.ar    1  UNL1        0.0203
     35 C          65.2313   96.6121    9.7815 C.ar    1  UNL1        0.0985
     36 N          65.2768   95.3209   10.5435 N.ar    1  UNL1       -0.2471
     37 C          66.2871   94.2725   10.1829 C.ar    1  UNL1        0.0695
@<TRIPOS>BOND
     1    26    27    1
     2    27    25    1
     3     1    25    1
     4     1     2    1
     5     2     3    1
     6     3     4   ar
     7     4     5   ar
     8     5     6   ar
     9     6     7   ar
    10     7     8   ar
    11     8    12    1
    12    12    13    1
    13    13    14    1
    14    14    15    1
    15    15    18    1
    16    18    19    1
    17    19    20   ar
    18    20    21   ar
    19    21    22   ar
    20    22    23   ar
    21    23    24   ar
    22    15    16    1
    23    16    17    1
    24     4     9    1
    25     9    10    1
    26    28    27    1
    27    28    29    1
    28    29    30    1
    29    30    31    1
    30    31    32    1
    31    32    33   ar
    32    33    34   ar
    33    34    35   ar
    34    35    36   ar
    35    36    37   ar
    36    10     1    1
    37    37    28    1
    38     8     3   ar
    39    17    12    1
    40    37    32   ar
    41    24    19   ar
    42    10    11    1
@<TRIPOS>MOLECULE
*****
 37 42 0 0 0
SMALL
GASTEIGER

@<TRIPOS>ATOM
      1 C          63.1368   88.6979   12.9133 C.3     1  UNL1        0.0749
      2 C          62.4145   88.0328   11.7794 C.3     1  UNL1        0.0444
      3 C          62.5369   86.5514   11.5783 C.ar    1  UNL1       -0.0101
      4 C          63.3816   85.7351   12.5112 C.ar    1  UNL1       -0.0091
      5 C          63.5040   84.2537   12.3101 C.ar    1  UNL1       -0.0032
      6 C          62.7817   83.5885   11.1762 C.ar    1  UNL1        0.0010
      7 C          61.9370   84.4048   10.2433 C.ar    1  UNL1        0.0142
      8 C          61.8146   85.8862   10.4444 C.ar    1  UNL1        0.0436
      9 C          64.1039   86.4003   13.6451 C.3     1  UNL1        0.0954
     10 N          63.9815   87.8817   13.8462 N.3     1  UNL1       -0.2934
     11 H          64.9259   88.2642   13.7992 H       1  UNL1        0.1236
     12 N          60.9699   86.7024    9.5115 N.pl3   1  UNL1       -0.3049
     13 C          60.8912   88.1910    9.6793 C.3     1  UNL1        0.1081
     14 C          60.0465   89.0072    8.7464 C.3     1  UNL1        0.0941
     15 N          59.2805   88.3349    7.6458 N.3     1  UNL1       -0.2647
     16 C          59.3592   86.8464    7.4781 C.3     1  UNL1        0.0941
     17 C          60.2039   86.0302    8.4109 C.3     1  UNL1        0.1081
     18 C          58.4358   89.1511    6.7129 C.3     1  UNL1        0.1187
     19 C          59.0742   90.1855    5.8339 C.ar    1  UNL1        0.0752
     20 C          58.2469   91.2993    5.2638 C.ar    1  UNL1        0.0161
     21 C          58.8854   92.3336    4.3849 C.ar    1  UNL1        0.0028
     22 C          60.3511   92.2541    4.0761 C.ar    1  UNL1        0.0207
     23 C          61.1784   91.1404    4.6462 C.ar    1  UNL1        0.0985
     24 N          60.5399   90.1061    5.5251 N.ar    1  UNL1       -0.2468
     25 C          63.0145   90.1794   13.1144 C.3     1  UNL1        0.0886
     26 C          62.3052   91.2543   10.8580 C.3     1  UNL1        0.0899
     27 N          63.2945   91.1163   11.9770 N.3     1  UNL1       -0.2667
     28 C          64.5639   91.9153   11.9587 C.3     1  UNL1        0.0978
     29 C          65.1223   92.4063   10.6559 C.3     1  UNL1        0.0224
     30 C          66.3917   93.2052   10.6376 C.3     1  UNL1        0.0065
     31 C          67.1027   93.5132   11.9219 C.3     1  UNL1        0.0277
     32 C          66.5444   93.0221   13.2247 C.ar    1  UNL1       -0.0073
     33 C          67.2554   93.3300   14.5090 C.ar    1  UNL1       -0.0015
     34 C          66.6971   92.8390   15.8117 C.ar    1  UNL1        0.0203
     35 C          65.4277   92.0401   15.8301 C.ar    1  UNL1        0.0985
     36 N          64.7166   91.7321   14.5458 N.ar    1  UNL1       -0.2471
     37 C          65.2750   92.2232   13.2431 C.ar    1  UNL1        0.0695
@<TRIPOS>BOND
     1    26    27    1
     2    27    25    1
     3     1    25    1
     4     1     2    1
     5     2     3    1
     6     3     4   ar
     7     4     5   ar
     8     5     6   ar
     9     6     7   ar
    10     7     8   ar
    11     8    12    1
    12    12    13    1
    13    13    14    1
    14    14    15    1
    15    15    18    1
    16    18    19    1
    17    19    20   ar
    18    20    21   ar
    19    21    22   ar
    20    22    23   ar
    21    23    24   ar
    22    15    16    1
    23    16    17    1
    24     4     9    1
    25     9    10    1
    26    28    27    1
    27    28    29    1
    28    29    30    1
    29    30    31    1
    30    31    32    1
    31    32    33   ar
    32    33    34   ar
    33    34    35   ar
    34    35    36   ar
    35    36    37   ar
    36    10     1    1
    37    37    28    1
    38     8     3   ar
    39    17    12    1
    40    37    32   ar
    41    24    19   ar
    42    10    11    1
