@<TRIPOS>MOLECULE
*****
 29 32 0 0 0
SMALL
GASTEIGER

@<TRIPOS>ATOM
      1 C          62.1208   87.3241   11.5724 C.3     1  UNL1        0.0970
      2 C          63.1538   88.3223   12.0041 C.3     1  UNL1        0.1137
      3 N          62.8220   89.7850   12.0222 N.pl3   1  UNL1       -0.2763
      4 C          61.4570   90.2495   11.6086 C.3     1  UNL1        0.1107
      5 C          60.4240   89.2514   11.1768 C.3     1  UNL1        0.0906
      6 N          60.7559   87.7887   11.1588 N.3     1  UNL1       -0.2923
      7 H          60.6125   87.4660   10.2018 H       1  UNL1        0.1236
      8 C          63.8551   90.7832   12.4540 C.ar    1  UNL1        0.2035
      9 N          64.5517   91.6315   11.4317 N.ar    1  UNL1       -0.2148
     10 C          65.5848   92.6297   11.8635 C.ar    1  UNL1        0.0890
     11 C          65.9213   92.7795   13.3176 C.ar    1  UNL1        0.0800
     12 C          65.2246   91.9311   14.3399 C.ar    1  UNL1        0.2645
     13 O          65.5611   92.0810   15.7939 O.2     1  UNL1       -0.2668
     14 N          64.1916   90.9330   13.9081 N.ar    1  UNL1       -0.2667
     15 C          63.4949   90.0847   14.9304 C.3     1  UNL1        0.1363
     16 C          66.2814   93.4779   10.8412 C.ar    1  UNL1        0.0210
     17 C          67.3639   92.8866    9.9876 C.ar    1  UNL1        0.0222
     18 C          68.0605   93.7349    8.9654 C.ar    1  UNL1        0.0989
     19 N          67.6746   95.1746    8.7966 N.ar    1  UNL1       -0.2423
     20 C          66.5921   95.7659    9.6501 C.ar    1  UNL1        0.0989
     21 C          65.8955   94.9176   10.6725 C.ar    1  UNL1        0.0222
     22 C          63.1164   82.9360   11.5181 C.ar    1  UNL1        0.1387
     23 C          63.0842   83.7136   10.2359 C.ar    1  UNL1        0.0366
     24 C          62.7524   85.1764   10.2540 C.ar    1  UNL1        0.0002
     25 C          62.4527   85.8614   11.5543 C.ar    1  UNL1       -0.0061
     26 C          62.4849   85.0837   12.8365 C.ar    1  UNL1        0.0002
     27 C          62.8167   83.6210   12.8184 C.ar    1  UNL1        0.0366
     28 C          62.8122   80.5475   12.4941 C.3     1  UNL1        0.2525
     29 O          63.4483   81.4733   11.5000 O.3     1  UNL1       -0.4714
@<TRIPOS>BOND
     1    28    29    1
     2    29    22    1
     3    22    23   ar
     4    23    24   ar
     5    24    25   ar
     6    25     1    1
     7     1     2    1
     8     2     3    1
     9     3     8    1
    10     8     9   ar
    11     9    10   ar
    12    10    16    1
    13    16    17   ar
    14    17    18   ar
    15    18    19   ar
    16    19    20   ar
    17    20    21   ar
    18    10    11   ar
    19    11    12   ar
    20    12    13    2
    21    12    14   ar
    22    14    15    1
    23     3     4    1
    24     4     5    1
    25     5     6    1
    26    25    26   ar
    27    26    27   ar
    28    27    22   ar
    29     6     1    1
    30    14     8   ar
    31    21    16   ar
    32     6     7    1
@<TRIPOS>MOLECULE
*****
 29 32 0 0 0
SMALL
GASTEIGER

@<TRIPOS>ATOM
      1 C          61.1817   88.3344   10.4065 C.3     1  UNL1        0.0970
      2 C          62.4520   89.0538   10.7509 C.3     1  UNL1        0.1137
      3 N          62.4535   90.1011   11.8247 N.pl3   1  UNL1       -0.2763
      4 C          61.1845   90.4291   12.5541 C.3     1  UNL1        0.1107
      5 C          59.9142   89.7098   12.2098 C.3     1  UNL1        0.0906
      6 N          59.9127   88.6624   11.1360 N.3     1  UNL1       -0.2923
      7 H          59.2379   88.9628   10.4326 H       1  UNL1        0.1236
      8 C          63.7240   90.8205   12.1690 C.ar    1  UNL1        0.2035
      9 N          64.3105   91.8095   11.2058 N.ar    1  UNL1       -0.2148
     10 C          65.5810   92.5289   11.5501 C.ar    1  UNL1        0.0890
     11 C          66.2648   92.2592   12.8576 C.ar    1  UNL1        0.0800
     12 C          65.6782   91.2701   13.8208 C.ar    1  UNL1        0.2645
     13 O          66.3621   91.0004   15.1283 O.2     1  UNL1       -0.2668
     14 N          64.4078   90.5508   13.4765 N.ar    1  UNL1       -0.2667
     15 C          63.8212   89.5617   14.4397 C.3     1  UNL1        0.1363
     16 C          66.1675   93.5179   10.5869 C.ar    1  UNL1        0.0210
     17 C          65.6040   94.9054   10.5005 C.ar    1  UNL1        0.0222
     18 C          66.1906   95.8944    9.5373 C.ar    1  UNL1        0.0989
     19 N          67.3407   95.4960    8.6605 N.ar    1  UNL1       -0.2423
     20 C          67.9041   94.1086    8.7470 C.ar    1  UNL1        0.0989
     21 C          67.3175   93.1195    9.7102 C.ar    1  UNL1        0.0222
     22 C          61.1773   85.1924    7.1851 C.ar    1  UNL1        0.1387
     23 C          62.4178   85.4375    7.9921 C.ar    1  UNL1        0.0366
     24 C          62.4192   86.4848    9.0659 C.ar    1  UNL1        0.0002
     25 C          61.1802   87.2871    9.3327 C.ar    1  UNL1       -0.0061
     26 C          59.9398   87.0420    8.5258 C.ar    1  UNL1        0.0002
     27 C          59.9384   85.9946    7.4520 C.ar    1  UNL1        0.0366
     28 C          62.2232   84.1701    5.0378 C.3     1  UNL1        0.2525
     29 O          61.1759   84.1450    6.1113 O.3     1  UNL1       -0.4714
@<TRIPOS>BOND
     1    28    29    1
     2    29    22    1
     3    22    23   ar
     4    23    24   ar
     5    24    25   ar
     6    25     1    1
     7     1     2    1
     8     2     3    1
     9     3     8    1
    10     8     9   ar
    11     9    10   ar
    12    10    16    1
    13    16    17   ar
    14    17    18   ar
    15    18    19   ar
    16    19    20   ar
    17    20    21   ar
    18    10    11   ar
    19    11    12   ar
    20    12    13    2
    21    12    14   ar
    22    14    15    1
    23     3     4    1
    24     4     5    1
    25     5     6    1
    26    25    26   ar
    27    26    27   ar
    28    27    22   ar
    29     6     1    1
    30    14     8   ar
    31    21    16   ar
    32     6     7    1
@<TRIPOS>MOLECULE
*****
 29 32 0 0 0
SMALL
GASTEIGER

@<TRIPOS>ATOM
      1 C          63.5448   84.6479   13.4776 C.3     1  UNL1        0.0970
      2 C          63.3090   85.8740   12.6464 C.3     1  UNL1        0.1137
      3 N          63.5140   87.2351   13.2425 N.pl3   1  UNL1       -0.2763
      4 C          63.9549   87.3701   14.6698 C.3     1  UNL1        0.1107
      5 C          64.1908   86.1440   15.5010 C.3     1  UNL1        0.0906
      6 N          63.9857   84.7829   14.9049 N.3     1  UNL1       -0.2923
      7 H          63.2823   84.3143   15.4759 H       1  UNL1        0.1236
      8 C          63.2782   88.4613   12.4112 C.ar    1  UNL1        0.2035
      9 N          64.1645   89.6603   12.5748 N.ar    1  UNL1       -0.2148
     10 C          63.9287   90.8864   11.7435 C.ar    1  UNL1        0.0890
     11 C          62.8064   90.9135   10.7486 C.ar    1  UNL1        0.0800
     12 C          61.9200   89.7145   10.5850 C.ar    1  UNL1        0.2645
     13 O          60.7978   89.7416    9.5901 O.2     1  UNL1       -0.2668
     14 N          62.1559   88.4884   11.4163 N.ar    1  UNL1       -0.2667
     15 C          61.2695   87.2894   11.2527 C.3     1  UNL1        0.1363
     16 C          64.8150   92.0854   11.9071 C.ar    1  UNL1        0.0210
     17 C          65.0448   93.0117   10.7499 C.ar    1  UNL1        0.0222
     18 C          65.9312   94.2107   10.9135 C.ar    1  UNL1        0.0989
     19 N          66.5878   94.4833   12.2344 N.ar    1  UNL1       -0.2423
     20 C          66.3580   93.5570   13.3916 C.ar    1  UNL1        0.0989
     21 C          65.4716   92.3580   13.2279 C.ar    1  UNL1        0.0222
     22 C          62.9296   80.5646   11.6893 C.ar    1  UNL1        0.1387
     23 C          63.4944   81.6731   10.8513 C.ar    1  UNL1        0.0366
     24 C          63.6994   83.0342   11.4474 C.ar    1  UNL1        0.0002
     25 C          63.3397   83.2868   12.8815 C.ar    1  UNL1       -0.0061
     26 C          62.7750   82.1784   13.7195 C.ar    1  UNL1        0.0002
     27 C          62.5699   80.8173   13.1234 C.ar    1  UNL1        0.0366
     28 C          62.7914   79.0182    9.6062 C.3     1  UNL1        0.2525
     29 O          62.7245   79.2035   11.0931 O.3     1  UNL1       -0.4714
@<TRIPOS>BOND
     1    28    29    1
     2    29    22    1
     3    22    23   ar
     4    23    24   ar
     5    24    25   ar
     6    25     1    1
     7     1     2    1
     8     2     3    1
     9     3     8    1
    10     8     9   ar
    11     9    10   ar
    12    10    16    1
    13    16    17   ar
    14    17    18   ar
    15    18    19   ar
    16    19    20   ar
    17    20    21   ar
    18    10    11   ar
    19    11    12   ar
    20    12    13    2
    21    12    14   ar
    22    14    15    1
    23     3     4    1
    24     4     5    1
    25     5     6    1
    26    25    26   ar
    27    26    27   ar
    28    27    22   ar
    29     6     1    1
    30    14     8   ar
    31    21    16   ar
    32     6     7    1
@<TRIPOS>MOLECULE
*****
 29 32 0 0 0
SMALL
GASTEIGER

@<TRIPOS>ATOM
      1 C          62.8378   90.1124   12.3397 C.3     1  UNL1        0.0970
      2 C          63.1326   88.7234   11.8564 C.3     1  UNL1        0.1137
      3 N          62.0177   87.8470   11.3674 N.pl3   1  UNL1       -0.2763
      4 C          60.6081   88.3596   11.3619 C.3     1  UNL1        0.1107
      5 C          60.3133   89.7486   11.8452 C.3     1  UNL1        0.0906
      6 N          61.4281   90.6250   12.3342 N.3     1  UNL1       -0.2923
      7 H          61.2032   90.8784   13.2962 H       1  UNL1        0.1236
      8 C          62.3126   86.4579   10.8840 C.ar    1  UNL1        0.2035
      9 N          62.4762   85.3396   11.8702 N.ar    1  UNL1       -0.2148
     10 C          62.7710   83.9505   11.3868 C.ar    1  UNL1        0.0890
     11 C          62.9023   83.6798    9.9173 C.ar    1  UNL1        0.0800
     12 C          62.7387   84.7983    8.9311 C.ar    1  UNL1        0.2645
     13 O          62.8699   84.5276    7.4616 O.2     1  UNL1       -0.2668
     14 N          62.4438   86.1873    9.4145 N.ar    1  UNL1       -0.2667
     15 C          62.2802   87.3057    8.4284 C.3     1  UNL1        0.1363
     16 C          62.9346   82.8321   12.3729 C.ar    1  UNL1        0.0210
     17 C          63.5350   83.1025   13.7207 C.ar    1  UNL1        0.0222
     18 C          63.6986   81.9841   14.7068 C.ar    1  UNL1        0.0989
     19 N          63.2618   80.5954   14.3452 N.ar    1  UNL1       -0.2423
     20 C          62.6614   80.3251   12.9974 C.ar    1  UNL1        0.0989
     21 C          62.4979   81.4435   12.0113 C.ar    1  UNL1        0.0222
     22 C          66.1823   92.7416   13.8065 C.ar    1  UNL1        0.1387
     23 C          65.7068   92.8540   12.3883 C.ar    1  UNL1        0.0366
     24 C          64.5920   91.9776   11.8994 C.ar    1  UNL1        0.0002
     25 C          63.9526   90.9888   12.8286 C.ar    1  UNL1       -0.0061
     26 C          64.4281   90.8764   14.2468 C.ar    1  UNL1        0.0002
     27 C          65.5430   91.7528   14.7357 C.ar    1  UNL1        0.0366
     28 C          67.9128   93.3682   15.6402 C.3     1  UNL1        0.2525
     29 O          67.2971   93.6180   14.2954 O.3     1  UNL1       -0.4714
@<TRIPOS>BOND
     1    28    29    1
     2    29    22    1
     3    22    23   ar
     4    23    24   ar
     5    24    25   ar
     6    25     1    1
     7     1     2    1
     8     2     3    1
     9     3     8    1
    10     8     9   ar
    11     9    10   ar
    12    10    16    1
    13    16    17   ar
    14    17    18   ar
    15    18    19   ar
    16    19    20   ar
    17    20    21   ar
    18    10    11   ar
    19    11    12   ar
    20    12    13    2
    21    12    14   ar
    22    14    15    1
    23     3     4    1
    24     4     5    1
    25     5     6    1
    26    25    26   ar
    27    26    27   ar
    28    27    22   ar
    29     6     1    1
    30    14     8   ar
    31    21    16   ar
    32     6     7    1
@<TRIPOS>MOLECULE
*****
 29 32 0 0 0
SMALL
GASTEIGER

@<TRIPOS>ATOM
      1 C          63.5932   84.5771   13.5645 C.3     1  UNL1        0.0970
      2 C          63.6877   85.9757   13.0306 C.3     1  UNL1        0.1137
      3 N          63.8427   87.1303   13.9755 N.pl3   1  UNL1       -0.2763
      4 C          63.9031   86.8863   15.4543 C.3     1  UNL1        0.1107
      5 C          63.8086   85.4878   15.9881 C.3     1  UNL1        0.0906
      6 N          63.6537   84.3332   15.0432 N.3     1  UNL1       -0.2923
      7 H          62.7882   83.8576   15.2988 H       1  UNL1        0.1236
      8 C          63.9372   88.5289   13.4416 C.ar    1  UNL1        0.2035
      9 N          64.8877   89.5072   14.0655 N.ar    1  UNL1       -0.2148
     10 C          64.9822   90.9059   13.5315 C.ar    1  UNL1        0.0890
     11 C          64.1262   91.3260   12.3737 C.ar    1  UNL1        0.0800
     12 C          63.1756   90.3476   11.7498 C.ar    1  UNL1        0.2645
     13 O          62.3196   90.7678   10.5919 O.2     1  UNL1       -0.2668
     14 N          63.0811   88.9491   12.2837 N.ar    1  UNL1       -0.2667
     15 C          62.1306   87.9707   11.6598 C.3     1  UNL1        0.1363
     16 C          65.9327   91.8842   14.1554 C.ar    1  UNL1        0.0210
     17 C          66.0559   93.2708   13.5967 C.ar    1  UNL1        0.0222
     18 C          67.0064   94.2491   14.2206 C.ar    1  UNL1        0.0989
     19 N          67.8339   93.8409   15.4033 N.ar    1  UNL1       -0.2423
     20 C          67.7107   92.4543   15.9621 C.ar    1  UNL1        0.0989
     21 C          66.7602   91.4759   15.3381 C.ar    1  UNL1        0.0222
     22 C          63.1283   81.1132   10.7298 C.ar    1  UNL1        0.1387
     23 C          62.4258   81.0974   12.0549 C.ar    1  UNL1        0.0366
     24 C          62.5807   82.2520   12.9998 C.ar    1  UNL1        0.0002
     25 C          63.4382   83.4225   12.6196 C.ar    1  UNL1       -0.0061
     26 C          64.1408   83.4383   11.2944 C.ar    1  UNL1        0.0002
     27 C          63.9858   82.2837   10.3495 C.ar    1  UNL1        0.0366
     28 C          62.8911   78.5590   10.3180 C.3     1  UNL1        0.2525
     29 O          62.9734   79.9586    9.7849 O.3     1  UNL1       -0.4714
@<TRIPOS>BOND
     1    28    29    1
     2    29    22    1
     3    22    23   ar
     4    23    24   ar
     5    24    25   ar
     6    25     1    1
     7     1     2    1
     8     2     3    1
     9     3     8    1
    10     8     9   ar
    11     9    10   ar
    12    10    16    1
    13    16    17   ar
    14    17    18   ar
    15    18    19   ar
    16    19    20   ar
    17    20    21   ar
    18    10    11   ar
    19    11    12   ar
    20    12    13    2
    21    12    14   ar
    22    14    15    1
    23     3     4    1
    24     4     5    1
    25     5     6    1
    26    25    26   ar
    27    26    27   ar
    28    27    22   ar
    29     6     1    1
    30    14     8   ar
    31    21    16   ar
    32     6     7    1
@<TRIPOS>MOLECULE
*****
 29 32 0 0 0
SMALL
GASTEIGER

@<TRIPOS>ATOM
      1 C          59.5632   89.0017    7.1747 C.3     1  UNL1        0.0970
      2 C          60.5253   89.1037    8.3210 C.3     1  UNL1        0.1137
      3 N          60.5760   88.0195    9.3563 N.pl3   1  UNL1       -0.2763
      4 C          59.6647   86.8332    9.2454 C.3     1  UNL1        0.1107
      5 C          58.7026   86.7313    8.0991 C.3     1  UNL1        0.0906
      6 N          58.6519   87.8155    7.0638 N.3     1  UNL1       -0.2923
      7 H          57.6978   88.1763    7.0618 H       1  UNL1        0.1236
      8 C          61.5382   88.1215   10.5026 C.ar    1  UNL1        0.2035
      9 N          61.9789   86.8827   11.2244 N.ar    1  UNL1       -0.2148
     10 C          62.9411   86.9847   12.3707 C.ar    1  UNL1        0.0890
     11 C          63.4625   88.3256   12.7951 C.ar    1  UNL1        0.0800
     12 C          63.0217   89.5645   12.0732 C.ar    1  UNL1        0.2645
     13 O          63.5431   90.9054   12.4976 O.2     1  UNL1       -0.2668
     14 N          62.0596   89.4624   10.9270 N.ar    1  UNL1       -0.2667
     15 C          61.6189   90.7012   10.2051 C.3     1  UNL1        0.1363
     16 C          63.3818   85.7459   13.0925 C.ar    1  UNL1        0.0210
     17 C          63.0373   84.3940   12.5413 C.ar    1  UNL1        0.0222
     18 C          63.4780   83.1552   13.2631 C.ar    1  UNL1        0.0989
     19 N          64.2632   83.2682   14.5362 N.ar    1  UNL1       -0.2423
     20 C          64.6076   84.6200   15.0875 C.ar    1  UNL1        0.0989
     21 C          64.1669   85.8589   14.3656 C.ar    1  UNL1        0.0222
     22 C          59.4109   92.2544    4.0688 C.ar    1  UNL1        0.1387
     23 C          58.1516   91.8105    4.7523 C.ar    1  UNL1        0.0366
     24 C          58.2024   90.7263    5.7877 C.ar    1  UNL1        0.0002
     25 C          59.5124   90.0859    6.1394 C.ar    1  UNL1       -0.0061
     26 C          60.7716   90.5298    5.4559 C.ar    1  UNL1        0.0002
     27 C          60.7209   91.6140    4.4206 C.ar    1  UNL1        0.0366
     28 C          59.7940   93.0529    1.6264 C.3     1  UNL1        0.2525
     29 O          59.3601   93.3386    3.0335 O.3     1  UNL1       -0.4714
@<TRIPOS>BOND
     1    28    29    1
     2    29    22    1
     3    22    23   ar
     4    23    24   ar
     5    24    25   ar
     6    25     1    1
     7     1     2    1
     8     2     3    1
     9     3     8    1
    10     8     9   ar
    11     9    10   ar
    12    10    16    1
    13    16    17   ar
    14    17    18   ar
    15    18    19   ar
    16    19    20   ar
    17    20    21   ar
    18    10    11   ar
    19    11    12   ar
    20    12    13    2
    21    12    14   ar
    22    14    15    1
    23     3     4    1
    24     4     5    1
    25     5     6    1
    26    25    26   ar
    27    26    27   ar
    28    27    22   ar
    29     6     1    1
    30    14     8   ar
    31    21    16   ar
    32     6     7    1
@<TRIPOS>MOLECULE
*****
 29 32 0 0 0
SMALL
GASTEIGER

@<TRIPOS>ATOM
      1 C          63.4204   86.1236   15.2507 C.3     1  UNL1        0.0970
      2 C          63.9750   87.2823   14.4764 C.3     1  UNL1        0.1137
      3 N          63.9558   88.6595   15.0706 N.pl3   1  UNL1       -0.2763
      4 C          63.3818   88.8779   16.4391 C.3     1  UNL1        0.1107
      5 C          62.8272   87.7192   17.2134 C.3     1  UNL1        0.0906
      6 N          62.8464   86.3420   16.6192 N.3     1  UNL1       -0.2923
      7 H          61.8786   86.0216   16.5872 H       1  UNL1        0.1236
      8 C          64.5105   89.8183   14.2962 C.ar    1  UNL1        0.2035
      9 N          65.7324   90.5344   14.7902 N.ar    1  UNL1       -0.2148
     10 C          66.2871   91.6932   14.0158 C.ar    1  UNL1        0.0890
     11 C          65.6198   92.1358   12.7474 C.ar    1  UNL1        0.0800
     12 C          64.3979   91.4196   12.2534 C.ar    1  UNL1        0.2645
     13 O          63.7306   91.8621   10.9850 O.2     1  UNL1       -0.2668
     14 N          63.8432   90.2609   13.0278 N.ar    1  UNL1       -0.2667
     15 C          62.6213   89.5447   12.5337 C.3     1  UNL1        0.1363
     16 C          67.5089   92.4093   14.5099 C.ar    1  UNL1        0.0210
     17 C          68.8584   92.0599   13.9559 C.ar    1  UNL1        0.0222
     18 C          70.0803   92.7761   14.4499 C.ar    1  UNL1        0.0989
     19 N          69.9527   93.8416   15.4980 N.ar    1  UNL1       -0.2423
     20 C          68.6033   94.1910   16.0520 C.ar    1  UNL1        0.0989
     21 C          67.3814   93.4748   15.5579 C.ar    1  UNL1        0.0222
     22 C          63.4782   81.9921   13.4682 C.ar    1  UNL1        0.1387
     23 C          62.5262   82.3154   14.5813 C.ar    1  UNL1        0.0366
     24 C          62.5069   83.6926   15.1755 C.ar    1  UNL1        0.0002
     25 C          63.4396   84.7464   14.6565 C.ar    1  UNL1       -0.0061
     26 C          64.3916   84.4231   13.5434 C.ar    1  UNL1        0.0002
     27 C          64.4109   83.0460   12.9492 C.ar    1  UNL1        0.0366
     28 C          62.3333   79.6922   13.0816 C.3     1  UNL1        0.2525
     29 O          63.4975   80.6149   12.8740 O.3     1  UNL1       -0.4714
@<TRIPOS>BOND
     1    28    29    1
     2    29    22    1
     3    22    23   ar
     4    23    24   ar
     5    24    25   ar
     6    25     1    1
     7     1     2    1
     8     2     3    1
     9     3     8    1
    10     8     9   ar
    11     9    10   ar
    12    10    16    1
    13    16    17   ar
    14    17    18   ar
    15    18    19   ar
    16    19    20   ar
    17    20    21   ar
    18    10    11   ar
    19    11    12   ar
    20    12    13    2
    21    12    14   ar
    22    14    15    1
    23     3     4    1
    24     4     5    1
    25     5     6    1
    26    25    26   ar
    27    26    27   ar
    28    27    22   ar
    29     6     1    1
    30    14     8   ar
    31    21    16   ar
    32     6     7    1
@<TRIPOS>MOLECULE
*****
 29 32 0 0 0
SMALL
GASTEIGER

@<TRIPOS>ATOM
      1 C          62.9606   86.6912   12.1827 C.3     1  UNL1        0.0970
      2 C          63.3738   88.1058   12.4621 C.3     1  UNL1        0.1137
      3 N          64.0191   88.4541   13.7706 N.pl3   1  UNL1       -0.2763
      4 C          64.2513   87.3878   14.7997 C.3     1  UNL1        0.1107
      5 C          63.8381   85.9732   14.5203 C.3     1  UNL1        0.0906
      6 N          63.1928   85.6249   13.2117 N.3     1  UNL1       -0.2923
      7 H          62.2810   85.2236   13.4307 H       1  UNL1        0.1236
      8 C          64.4323   89.8688   14.0500 C.ar    1  UNL1        0.2035
      9 N          65.0945   90.6824   12.9779 N.ar    1  UNL1       -0.2148
     10 C          65.5077   92.0971   13.2573 C.ar    1  UNL1        0.0890
     11 C          65.2587   92.6981   14.6089 C.ar    1  UNL1        0.0800
     12 C          64.5965   91.8844   15.6811 C.ar    1  UNL1        0.2645
     13 O          64.3475   92.4854   17.0326 O.2     1  UNL1       -0.2668
     14 N          64.1834   90.4698   15.4016 N.ar    1  UNL1       -0.2667
     15 C          63.5212   89.6561   16.4738 C.3     1  UNL1        0.1363
     16 C          66.1698   92.9107   12.1851 C.ar    1  UNL1        0.0210
     17 C          66.0312   94.4043   12.1836 C.ar    1  UNL1        0.0222
     18 C          66.6933   95.2179   11.1114 C.ar    1  UNL1        0.0989
     19 N          67.4942   94.5379   10.0407 N.ar    1  UNL1       -0.2423
     20 C          67.6329   93.0444   10.0423 C.ar    1  UNL1        0.0989
     21 C          66.9707   92.2307   11.1145 C.ar    1  UNL1        0.0222
     22 C          61.0245   85.6463    8.2571 C.ar    1  UNL1        0.1387
     23 C          62.3116   84.9882    8.6573 C.ar    1  UNL1        0.0366
     24 C          62.9570   85.3365    9.9658 C.ar    1  UNL1        0.0002
     25 C          62.3152   86.3429   10.8742 C.ar    1  UNL1       -0.0061
     26 C          61.0281   87.0011   10.4740 C.ar    1  UNL1        0.0002
     27 C          60.3828   86.6528    9.1655 C.ar    1  UNL1        0.0366
     28 C          61.1199   84.4647    5.9453 C.3     1  UNL1        0.2525
     29 O          60.3791   85.2980    6.9486 O.3     1  UNL1       -0.4714
@<TRIPOS>BOND
     1    28    29    1
     2    29    22    1
     3    22    23   ar
     4    23    24   ar
     5    24    25   ar
     6    25     1    1
     7     1     2    1
     8     2     3    1
     9     3     8    1
    10     8     9   ar
    11     9    10   ar
    12    10    16    1
    13    16    17   ar
    14    17    18   ar
    15    18    19   ar
    16    19    20   ar
    17    20    21   ar
    18    10    11   ar
    19    11    12   ar
    20    12    13    2
    21    12    14   ar
    22    14    15    1
    23     3     4    1
    24     4     5    1
    25     5     6    1
    26    25    26   ar
    27    26    27   ar
    28    27    22   ar
    29     6     1    1
    30    14     8   ar
    31    21    16   ar
    32     6     7    1
@<TRIPOS>MOLECULE
*****
 29 32 0 0 0
SMALL
GASTEIGER

@<TRIPOS>ATOM
      1 C          63.0682   88.9805   12.3087 C.3     1  UNL1        0.0970
      2 C          63.7837   90.2970   12.2399 C.3     1  UNL1        0.1137
      3 N          64.7382   90.6896   13.3284 N.pl3   1  UNL1       -0.2763
      4 C          64.9772   89.7658   14.4856 C.3     1  UNL1        0.1107
      5 C          64.2617   88.4492   14.5544 C.3     1  UNL1        0.0906
      6 N          63.3072   88.0566   13.4659 N.3     1  UNL1       -0.2923
      7 H          62.4023   87.9007   13.9099 H       1  UNL1        0.1236
      8 C          65.4537   92.0063   13.2596 C.ar    1  UNL1        0.2035
      9 N          65.4540   92.7939   11.9831 N.ar    1  UNL1       -0.2148
     10 C          66.1696   94.1105   11.9143 C.ar    1  UNL1        0.0890
     11 C          66.8848   94.6394   13.1221 C.ar    1  UNL1        0.0800
     12 C          66.8845   93.8517   14.3986 C.ar    1  UNL1        0.2645
     13 O          67.5997   94.3806   15.6064 O.2     1  UNL1       -0.2668
     14 N          66.1690   92.5351   14.4674 N.ar    1  UNL1       -0.2667
     15 C          66.1686   91.7474   15.7440 C.3     1  UNL1        0.1363
     16 C          66.1698   94.8981   10.6377 C.ar    1  UNL1        0.0210
     17 C          67.0952   94.5159    9.5208 C.ar    1  UNL1        0.0222
     18 C          67.0955   95.3035    8.2443 C.ar    1  UNL1        0.0989
     19 N          66.1704   96.4735    8.0846 N.ar    1  UNL1       -0.2423
     20 C          65.2450   96.8557    9.2016 C.ar    1  UNL1        0.0989
     21 C          65.2447   96.0680   10.4781 C.ar    1  UNL1        0.0222
     22 C          60.2048   87.8026    9.0432 C.ar    1  UNL1        0.1387
     23 C          60.8809   86.7457    9.8651 C.ar    1  UNL1        0.0366
     24 C          61.8354   87.1383   10.9536 C.ar    1  UNL1        0.0002
     25 C          62.1137   88.5879   11.2202 C.ar    1  UNL1       -0.0061
     26 C          61.4377   89.6449   10.3982 C.ar    1  UNL1        0.0002
     27 C          60.4832   89.2522    9.3097 C.ar    1  UNL1        0.0366
     28 C          59.3852   86.0749    7.2844 C.3     1  UNL1        0.2525
     29 O          59.2503   87.4100    7.9547 O.3     1  UNL1       -0.4714
@<TRIPOS>BOND
     1    28    29    1
     2    29    22    1
     3    22    23   ar
     4    23    24   ar
     5    24    25   ar
     6    25     1    1
     7     1     2    1
     8     2     3    1
     9     3     8    1
    10     8     9   ar
    11     9    10   ar
    12    10    16    1
    13    16    17   ar
    14    17    18   ar
    15    18    19   ar
    16    19    20   ar
    17    20    21   ar
    18    10    11   ar
    19    11    12   ar
    20    12    13    2
    21    12    14   ar
    22    14    15    1
    23     3     4    1
    24     4     5    1
    25     5     6    1
    26    25    26   ar
    27    26    27   ar
    28    27    22   ar
    29     6     1    1
    30    14     8   ar
    31    21    16   ar
    32     6     7    1
