@<TRIPOS>MOLECULE
*****
 33 37 0 0 0
SMALL
GASTEIGER

@<TRIPOS>ATOM
      1 C          62.7494   86.6046   11.7844 C.2     1  UNL1        0.2506
      2 O          63.4240   87.3340   12.9082 O.2     1  UNL1       -0.2699
      3 N          61.7342   87.3101   10.9349 N.am    1  UNL1       -0.2724
      4 C          61.0596   86.5807    9.8111 C.3     1  UNL1        0.1231
      5 C          60.0443   87.2863    8.9616 C.3     1  UNL1        0.1351
      6 C          59.3697   86.5569    7.8379 C.3     1  UNL1        0.0339
      7 O          59.7037   88.7211    9.2360 O.3     1  UNL1       -0.3527
      8 C          60.3784   89.4504   10.3598 C.3     1  UNL1        0.1621
      9 C          61.3936   88.7450   11.2092 C.3     1  UNL1        0.1096
     10 C          63.8463   81.8296   13.5155 C.3     1  UNL1        0.0327
     11 C          63.6385   82.7823   12.3756 C.ar    1  UNL1       -0.0023
     12 C          63.7712   82.3002   10.9615 C.ar    1  UNL1       -0.0027
     13 C          63.5633   83.2528    9.8216 C.ar    1  UNL1       -0.0001
     14 C          63.2227   84.6876   10.0959 C.ar    1  UNL1        0.0061
     15 C          63.0900   85.1698   11.5101 C.ar    1  UNL1        0.0726
     16 C          63.2979   84.2171   12.6500 C.ar    1  UNL1        0.1032
     17 N          63.1651   84.6993   14.0641 N.ar    1  UNL1       -0.1480
     18 N          64.2571   85.3047   14.8954 N.ar    1  UNL1       -0.1447
     19 C          63.6840   85.6403   16.2404 C.ar    1  UNL1        0.1446
     20 C          62.2377   85.2424   16.2403 C.ar    1  UNL1        0.1446
     21 N          61.9171   84.6608   14.8953 N.ar    1  UNL1       -0.1447
     22 C          62.0682   89.4743   12.3330 C.3     1  UNL1        0.0488
     23 C          63.1488   90.4719   12.0380 C.ar    1  UNL1       -0.0189
     24 C          63.2620   91.0717   10.6678 C.ar    1  UNL1       -0.0041
     25 C          64.3426   92.0694   10.3727 C.ar    1  UNL1        0.0013
     26 C          65.3100   92.4672   11.4478 C.ar    1  UNL1        0.0209
     27 C          65.1968   91.8673   12.8180 C.ar    1  UNL1        0.1026
     28 C          64.1162   90.8697   13.1131 C.ar    1  UNL1        0.0167
     29 N          66.1642   92.2651   13.8931 N.ar    1  UNL1       -0.1478
     30 N          67.6491   92.4068   13.7347 N.ar    1  UNL1       -0.1447
     31 C          68.2192   92.8203   15.0591 C.ar    1  UNL1        0.1446
     32 C          67.0867   92.9342   16.0360 C.ar    1  UNL1        0.1446
     33 N          65.8166   92.5910   15.3155 N.ar    1  UNL1       -0.1447
@<TRIPOS>BOND
     1    10    11    1
     2    11    12   ar
     3    12    13   ar
     4    13    14   ar
     5    14    15   ar
     6    15     1    1
     7     1     2    2
     8     1     3   am
     9     3     4    1
    10     4     5    1
    11     5     6    1
    12     5     7    1
    13     7     8    1
    14     8     9    1
    15     9    22    1
    16    22    23    1
    17    23    24   ar
    18    24    25   ar
    19    25    26   ar
    20    26    27   ar
    21    27    29    1
    22    29    30   ar
    23    30    31   ar
    24    31    32   ar
    25    32    33   ar
    26    27    28   ar
    27    15    16   ar
    28    16    17    1
    29    17    18   ar
    30    18    19   ar
    31    19    20   ar
    32    20    21   ar
    33    16    11   ar
    34    21    17   ar
    35     9     3    1
    36    28    23   ar
    37    33    29   ar
@<TRIPOS>MOLECULE
*****
 33 37 0 0 0
SMALL
GASTEIGER

@<TRIPOS>ATOM
      1 C          62.9609   87.1921   12.1981 C.2     1  UNL1        0.2506
      2 O          63.6311   87.5226   13.4987 O.2     1  UNL1       -0.2699
      3 N          62.2031   88.2515   11.4543 N.am    1  UNL1       -0.2724
      4 C          61.5328   87.9210   10.1538 C.3     1  UNL1        0.1231
      5 C          60.7750   88.9806    9.4100 C.3     1  UNL1        0.1351
      6 C          60.1047   88.6500    8.1095 C.3     1  UNL1        0.0339
      7 O          60.6875   90.3706    9.9668 O.3     1  UNL1       -0.3527
      8 C          61.3578   90.7012   11.2674 C.3     1  UNL1        0.1621
      9 C          62.1156   89.6417   12.0111 C.3     1  UNL1        0.1096
     10 C          63.3276   82.0621   12.9397 C.3     1  UNL1        0.0327
     11 C          63.2318   83.2371   12.0121 C.ar    1  UNL1       -0.0023
     12 C          63.2234   83.0219   10.5276 C.ar    1  UNL1       -0.0027
     13 C          63.1276   84.1967    9.6000 C.ar    1  UNL1       -0.0001
     14 C          63.0400   85.5867   10.1568 C.ar    1  UNL1        0.0061
     15 C          63.0484   85.8019   11.6413 C.ar    1  UNL1        0.0726
     16 C          63.1442   84.6271   12.5689 C.ar    1  UNL1        0.1032
     17 N          63.1526   84.8423   14.0534 N.ar    1  UNL1       -0.1480
     18 N          64.3595   85.1325   14.8954 N.ar    1  UNL1       -0.1447
     19 C          63.9083   85.2747   16.3189 C.ar    1  UNL1        0.1446
     20 C          62.4225   85.0723   16.3566 C.ar    1  UNL1        0.1446
     21 N          61.9555   84.8051   14.9564 N.ar    1  UNL1       -0.1447
     22 C          62.7858   89.9722   13.3117 C.3     1  UNL1        0.0488
     23 C          64.1037   90.6885   13.3155 C.ar    1  UNL1       -0.0189
     24 C          65.0726   90.4704   14.4396 C.ar    1  UNL1       -0.0041
     25 C          66.3906   91.1867   14.4434 C.ar    1  UNL1        0.0013
     26 C          66.7396   92.1211   13.3230 C.ar    1  UNL1        0.0209
     27 C          65.7706   92.3392   12.1989 C.ar    1  UNL1        0.1026
     28 C          64.4527   91.6229   12.1951 C.ar    1  UNL1        0.0167
     29 N          66.1196   93.2736   11.0786 N.ar    1  UNL1       -0.1478
     30 N          67.0540   92.9783    9.9429 N.ar    1  UNL1       -0.1447
     31 C          67.1074   94.1895    9.0596 C.ar    1  UNL1        0.1446
     32 C          66.2059   95.2333    9.6494 C.ar    1  UNL1        0.1446
     33 N          65.5953   94.6673   10.8972 N.ar    1  UNL1       -0.1447
@<TRIPOS>BOND
     1    10    11    1
     2    11    12   ar
     3    12    13   ar
     4    13    14   ar
     5    14    15   ar
     6    15     1    1
     7     1     2    2
     8     1     3   am
     9     3     4    1
    10     4     5    1
    11     5     6    1
    12     5     7    1
    13     7     8    1
    14     8     9    1
    15     9    22    1
    16    22    23    1
    17    23    24   ar
    18    24    25   ar
    19    25    26   ar
    20    26    27   ar
    21    27    29    1
    22    29    30   ar
    23    30    31   ar
    24    31    32   ar
    25    32    33   ar
    26    27    28   ar
    27    15    16   ar
    28    16    17    1
    29    17    18   ar
    30    18    19   ar
    31    19    20   ar
    32    20    21   ar
    33    16    11   ar
    34    21    17   ar
    35     9     3    1
    36    28    23   ar
    37    33    29   ar
@<TRIPOS>MOLECULE
*****
 33 37 0 0 0
SMALL
GASTEIGER

@<TRIPOS>ATOM
      1 C          62.7731   88.5004   11.5537 C.2     1  UNL1        0.2506
      2 O          62.7356   89.9996   11.5258 O.2     1  UNL1       -0.2699
      3 N          63.3898   87.7872   12.7203 N.am    1  UNL1       -0.2724
      4 C          63.4273   86.2879   12.7482 C.3     1  UNL1        0.1231
      5 C          64.0441   85.5747   13.9149 C.3     1  UNL1        0.1351
      6 C          64.0816   84.0755   13.9429 C.3     1  UNL1        0.0339
      7 O          64.6232   86.3608   15.0536 O.3     1  UNL1       -0.3527
      8 C          64.5857   87.8601   15.0256 C.3     1  UNL1        0.1621
      9 C          63.9690   88.5733   13.8590 C.3     1  UNL1        0.1096
     10 C          58.7516   87.3331    8.4772 C.3     1  UNL1        0.0327
     11 C          60.1832   87.1307    8.8768 C.ar    1  UNL1       -0.0023
     12 C          61.0356   86.1422    8.1376 C.ar    1  UNL1       -0.0027
     13 C          62.4671   85.9397    8.5371 C.ar    1  UNL1       -0.0001
     14 C          63.0462   86.7258    9.6758 C.ar    1  UNL1        0.0061
     15 C          62.1939   87.7143   10.4150 C.ar    1  UNL1        0.0726
     16 C          60.7623   87.9167   10.0154 C.ar    1  UNL1        0.1032
     17 N          59.9100   88.9052   10.7546 N.ar    1  UNL1       -0.1480
     18 N          59.6972   90.3414   10.3778 N.ar    1  UNL1       -0.1447
     19 C          58.7764   90.9549   11.3906 C.ar    1  UNL1        0.1446
     20 C          58.4201   89.8978   12.3934 C.ar    1  UNL1        0.1446
     21 N          59.1206   88.6310   12.0003 N.ar    1  UNL1       -0.1447
     22 C          63.9315   90.0725   13.8311 C.3     1  UNL1        0.0488
     23 C          65.2106   90.8538   13.7710 C.ar    1  UNL1       -0.0189
     24 C          66.1513   90.8434   14.9392 C.ar    1  UNL1       -0.0041
     25 C          67.4304   91.6247   14.8792 C.ar    1  UNL1        0.0013
     26 C          67.7687   92.4163   13.6508 C.ar    1  UNL1        0.0209
     27 C          66.8279   92.4266   12.4825 C.ar    1  UNL1        0.1026
     28 C          65.5489   91.6454   12.5426 C.ar    1  UNL1        0.0167
     29 N          67.1662   93.2182   11.2541 N.ar    1  UNL1       -0.1478
     30 N          66.8382   94.6627   11.0179 N.ar    1  UNL1       -0.1447
     31 C          67.3612   95.0415    9.6641 C.ar    1  UNL1        0.1446
     32 C          68.0125   93.8311    9.0634 C.ar    1  UNL1        0.1446
     33 N          67.8921   92.7042   10.0461 N.ar    1  UNL1       -0.1447
@<TRIPOS>BOND
     1    10    11    1
     2    11    12   ar
     3    12    13   ar
     4    13    14   ar
     5    14    15   ar
     6    15     1    1
     7     1     2    2
     8     1     3   am
     9     3     4    1
    10     4     5    1
    11     5     6    1
    12     5     7    1
    13     7     8    1
    14     8     9    1
    15     9    22    1
    16    22    23    1
    17    23    24   ar
    18    24    25   ar
    19    25    26   ar
    20    26    27   ar
    21    27    29    1
    22    29    30   ar
    23    30    31   ar
    24    31    32   ar
    25    32    33   ar
    26    27    28   ar
    27    15    16   ar
    28    16    17    1
    29    17    18   ar
    30    18    19   ar
    31    19    20   ar
    32    20    21   ar
    33    16    11   ar
    34    21    17   ar
    35     9     3    1
    36    28    23   ar
    37    33    29   ar
