@<TRIPOS>MOLECULE
*****
 37 42 0 0 0
SMALL
GASTEIGER

@<TRIPOS>ATOM
      1 C          62.7413   83.2382   12.0103 C.ar    1  UNL1        0.0515
      2 C          63.6751   83.8752   12.9963 C.ar    1  UNL1        0.0439
      3 C          63.7782   85.3697   13.0742 C.ar    1  UNL1        0.1390
      4 F          64.7120   86.0067   14.0601 F       1  UNL1       -0.2044
      5 C          62.9474   86.2271   12.1661 C.ar    1  UNL1        0.0269
      6 C          62.0135   85.5900   11.1801 C.ar    1  UNL1        0.0537
      7 C          61.9105   84.0957   11.1022 C.ar    1  UNL1        0.0292
      8 N          61.3254   86.6846   10.4195 N.am    1  UNL1       -0.2568
      9 C          60.3075   86.4984    9.3337 C.3     1  UNL1        0.1200
     10 C          61.8339   87.9981   10.9354 C.2     1  UNL1        0.2326
     11 O          61.4138   89.3559   10.4561 O.2     1  UNL1       -0.2742
     12 C          62.8364   87.7153   12.0149 C.3     1  UNL1        0.0977
     13 C          63.8115   87.2801   13.0683 C.3     1  UNL1        0.0535
     14 C          64.5698   88.3056   13.8579 C.3     1  UNL1        0.1690
     15 N          64.3530   89.7662   13.5940 N.pl3   1  UNL1       -0.1876
     16 C          63.3779   90.2014   12.5406 C.3     1  UNL1        0.1690
     17 C          62.6196   89.1759   11.7510 C.3     1  UNL1        0.0535
     18 C          65.1114   90.7916   14.3836 C.2     1  UNL1        0.4556
     19 N          66.5312   91.1155   14.0242 N.2     1  UNL1        0.0211
     20 C          67.2895   92.1409   14.8137 C.2     1  UNL1        0.3162
     21 C          66.6281   92.8425   15.9628 C.3     1  UNL1        0.2015
     22 C          65.2082   92.5185   16.3223 C.2     1  UNL1        0.3304
     23 O          64.5468   93.2200   17.4714 O.2     1  UNL1       -0.2528
     24 N          64.4499   91.4931   15.5327 N.am    1  UNL1        0.0063
     25 C          67.3864   93.8678   16.7524 C.3     1  UNL1        0.0274
     26 C          68.8062   94.1917   16.3929 C.3     1  UNL1        0.0520
     27 C          69.4677   93.4903   15.2439 C.3     1  UNL1        0.2022
     28 N          68.7093   92.4648   14.4542 N.pl3   1  UNL1       -0.1898
     29 C          69.3708   91.7634   13.3052 C.3     1  UNL1        0.2533
     30 C          63.0639   78.8426    9.2581 C.3     1  UNL1        0.0339
     31 C          62.7995   79.5460   10.5563 C.3     1  UNL1        0.1349
     32 C          62.9026   81.0404   10.6343 C.3     1  UNL1        0.1205
     33 N          62.6382   81.7438   11.9325 N.pl3   1  UNL1       -0.3028
     34 C          62.2708   80.9527   13.1528 C.3     1  UNL1        0.1205
     35 C          62.1677   79.4584   13.0750 C.3     1  UNL1        0.1349
     36 C          61.8003   78.6673   14.2953 C.3     1  UNL1        0.0339
     37 O          62.4321   78.7550   11.7767 O.3     1  UNL1       -0.3552
@<TRIPOS>BOND
     1    31    30    1
     2    31    32    1
     3    32    33    1
     4    33     1    1
     5     1     2   ar
     6     2     3   ar
     7     3     4    1
     8     3     5   ar
     9     5     6   ar
    10     6     7   ar
    11     6     8    1
    12     8     9    1
    13     8    10   am
    14    10    11    2
    15    10    12    1
    16    12    13    1
    17    13    14    1
    18    14    15    1
    19    15    18    1
    20    18    19    1
    21    19    20    2
    22    20    21    1
    23    21    22    1
    24    22    23    2
    25    22    24    1
    26    21    25    1
    27    25    26    1
    28    26    27    1
    29    27    28    1
    30    28    29    1
    31    15    16    1
    32    16    17    1
    33    33    34    1
    34    34    35    1
    35    35    36    1
    36    35    37    1
    37    37    31    1
    38     7     1   ar
    39    17    12    1
    40    12     5    1
    41    24    18    2
    42    28    20    1
