@<TRIPOS>MOLECULE
*****
 17 19 0 0 0
SMALL
GASTEIGER

@<TRIPOS>ATOM
      1 C          60.9325   87.2646    9.0392 C.3     1  UNL1        0.0347
      2 C          61.9822   87.8262    9.9518 C.3     1  UNL1        0.0054
      3 C          61.7483   89.3028   10.0740 C.3     1  UNL1        0.0004
      4 C          60.5541   89.6538    9.2369 C.3     1  UNL1        0.0017
      5 C          60.0499   88.3942    8.5973 C.3     1  UNL1        0.0208
      6 C          59.0003   87.8326    7.6847 C.3     1  UNL1        0.0689
      7 N          59.2341   86.3560    7.5625 N.3     1  UNL1       -0.2972
      8 C          60.4283   86.0050    8.3996 C.3     1  UNL1        0.0726
      9 H          59.4111   86.1130    6.5878 H       1  UNL1        0.1233
     10 CL         64.4628   82.7463   10.8059 Cl      1  UNL1       -0.0814
     11 C          63.5803   83.8758   10.3643 C.ar    1  UNL1        0.0682
     12 C          63.6181   84.3444    8.9399 C.ar    1  UNL1        0.0119
     13 C          62.7355   85.4740    8.4982 C.ar    1  UNL1       -0.0033
     14 C          61.8151   86.1350    9.4809 C.ar    1  UNL1       -0.0206
     15 C          61.7772   85.6665   10.9053 C.ar    1  UNL1        0.0080
     16 C          62.6597   84.5369   11.3470 C.ar    1  UNL1        0.0679
     17 CL         62.6219   84.0684   12.7714 Cl      1  UNL1       -0.0814
@<TRIPOS>BOND
     1    10    11    1
     2    11    12   ar
     3    12    13   ar
     4    13    14   ar
     5     1    14    1
     6     1     2    1
     7     2     3    1
     8     3     4    1
     9     5     4    1
    10     5     6    1
    11     6     7    1
    12     7     8    1
    13    14    15   ar
    14    15    16   ar
    15    16    17    1
    16    16    11   ar
    17     5     1    1
    18     8     1    1
    19     7     9    1
@<TRIPOS>MOLECULE
*****
 17 19 0 0 0
SMALL
GASTEIGER

@<TRIPOS>ATOM
      1 C          60.9988   87.3853    9.1718 C.3     1  UNL1        0.0347
      2 C          60.4812   86.1824    8.4403 C.3     1  UNL1        0.0054
      3 C          59.3142   86.6155    7.6034 C.3     1  UNL1        0.0004
      4 C          59.1106   88.0861    7.8176 C.3     1  UNL1        0.0017
      5 C          60.1517   88.5619    8.7870 C.3     1  UNL1        0.0208
      6 C          60.6692   89.7648    9.5185 C.3     1  UNL1        0.0689
      7 N          61.8363   89.3317   10.3555 N.3     1  UNL1       -0.2972
      8 C          62.0399   87.8610   10.1412 C.3     1  UNL1        0.0726
      9 H          61.6429   89.5145   11.3402 H       1  UNL1        0.1233
     10 CL         64.3874   82.6792   10.7112 Cl      1  UNL1       -0.0814
     11 C          63.5403   83.8557   10.3264 C.ar    1  UNL1        0.0682
     12 C          63.5765   84.3782    8.9208 C.ar    1  UNL1        0.0119
     13 C          62.7293   85.5547    8.5360 C.ar    1  UNL1       -0.0033
     14 C          61.8459   86.2087    9.5567 C.ar    1  UNL1       -0.0206
     15 C          61.8098   85.6862   10.9623 C.ar    1  UNL1        0.0080
     16 C          62.6569   84.5098   11.3471 C.ar    1  UNL1        0.0679
     17 CL         62.6208   83.9873   12.7527 Cl      1  UNL1       -0.0814
@<TRIPOS>BOND
     1    10    11    1
     2    11    12   ar
     3    12    13   ar
     4    13    14   ar
     5     1    14    1
     6     1     2    1
     7     2     3    1
     8     3     4    1
     9     5     4    1
    10     5     6    1
    11     6     7    1
    12     7     8    1
    13    14    15   ar
    14    15    16   ar
    15    16    17    1
    16    16    11   ar
    17     5     1    1
    18     8     1    1
    19     7     9    1
@<TRIPOS>MOLECULE
*****
 17 19 0 0 0
SMALL
GASTEIGER

@<TRIPOS>ATOM
      1 C          61.1972   86.6232    8.8114 C.3     1  UNL1        0.0347
      2 C          62.6028   86.1076    8.9031 C.3     1  UNL1        0.0054
      3 C          62.8053   85.1148    7.7970 C.3     1  UNL1        0.0004
      4 C          61.5248   85.0168    7.0218 C.3     1  UNL1        0.0017
      5 C          60.5310   85.9491    7.6488 C.3     1  UNL1        0.0208
      6 C          59.1254   86.4648    7.5572 C.3     1  UNL1        0.0689
      7 N          58.9229   87.4576    8.6632 N.3     1  UNL1       -0.2972
      8 C          60.2034   87.5555    9.4384 C.3     1  UNL1        0.0726
      9 H          58.1702   87.1442    9.2762 H       1  UNL1        0.1233
     10 CL         63.8618   89.3196   13.4621 Cl      1  UNL1       -0.0814
     11 C          63.1957   88.6456   12.2995 C.ar    1  UNL1        0.0682
     12 C          62.9603   87.1644   12.3255 C.ar    1  UNL1        0.0119
     13 C          62.2942   86.4903   11.1628 C.ar    1  UNL1       -0.0033
     14 C          61.8634   87.2974    9.9741 C.ar    1  UNL1       -0.0206
     15 C          62.0987   88.7786    9.9481 C.ar    1  UNL1        0.0080
     16 C          62.7648   89.4526   11.1107 C.ar    1  UNL1        0.0679
     17 CL         63.0002   90.9338   11.0848 Cl      1  UNL1       -0.0814
@<TRIPOS>BOND
     1    10    11    1
     2    11    12   ar
     3    12    13   ar
     4    13    14   ar
     5     1    14    1
     6     1     2    1
     7     2     3    1
     8     3     4    1
     9     5     4    1
    10     5     6    1
    11     6     7    1
    12     7     8    1
    13    14    15   ar
    14    15    16   ar
    15    16    17    1
    16    16    11   ar
    17     5     1    1
    18     8     1    1
    19     7     9    1
@<TRIPOS>MOLECULE
*****
 17 19 0 0 0
SMALL
GASTEIGER

@<TRIPOS>ATOM
      1 C          62.6967   83.4379   13.2299 C.3     1  UNL1        0.0347
      2 C          62.3315   82.3186   12.3005 C.3     1  UNL1        0.0054
      3 C          61.9806   81.1210   13.1327 C.3     1  UNL1        0.0004
      4 C          62.1290   81.5001   14.5764 C.3     1  UNL1        0.0017
      5 C          62.5716   82.9320   14.6365 C.3     1  UNL1        0.0208
      6 C          62.9368   84.0513   15.5659 C.3     1  UNL1        0.0689
      7 N          63.2877   85.2491   14.7336 N.3     1  UNL1       -0.2972
      8 C          63.1393   84.8699   13.2899 C.3     1  UNL1        0.0726
      9 H          64.2501   85.5304   14.9205 H       1  UNL1        0.1233
     10 CL         63.1975   85.4614    7.6037 Cl      1  UNL1       -0.0814
     11 C          63.0723   84.9555    9.0102 C.ar    1  UNL1        0.0682
     12 C          63.8656   83.7613    9.4511 C.ar    1  UNL1        0.0119
     13 C          63.7404   83.2555   10.8577 C.ar    1  UNL1       -0.0033
     14 C          62.8218   83.9438   11.8233 C.ar    1  UNL1       -0.0206
     15 C          62.0285   85.1380   11.3823 C.ar    1  UNL1        0.0080
     16 C          62.1537   85.6439    9.9759 C.ar    1  UNL1        0.0679
     17 CL         61.3604   86.8381    9.5349 Cl      1  UNL1       -0.0814
@<TRIPOS>BOND
     1    10    11    1
     2    11    12   ar
     3    12    13   ar
     4    13    14   ar
     5     1    14    1
     6     1     2    1
     7     2     3    1
     8     3     4    1
     9     5     4    1
    10     5     6    1
    11     6     7    1
    12     7     8    1
    13    14    15   ar
    14    15    16   ar
    15    16    17    1
    16    16    11   ar
    17     5     1    1
    18     8     1    1
    19     7     9    1
@<TRIPOS>MOLECULE
*****
 17 19 0 0 0
SMALL
GASTEIGER

@<TRIPOS>ATOM
      1 C          66.0585   92.5143   13.8083 C.3     1  UNL1        0.0347
      2 C          67.2911   93.3511   13.9831 C.3     1  UNL1        0.0054
      3 C          67.6708   93.3196   15.4339 C.3     1  UNL1        0.0004
      4 C          66.6729   92.4633   16.1557 C.3     1  UNL1        0.0017
      5 C          65.6764   91.9656   15.1510 C.3     1  UNL1        0.0208
      6 C          64.4439   91.1289   14.9762 C.3     1  UNL1        0.0689
      7 N          64.0641   91.1604   13.5253 N.3     1  UNL1       -0.2972
      8 C          65.0621   92.0167   12.8036 C.3     1  UNL1        0.0726
      9 H          63.1294   91.5551   13.4207 H       1  UNL1        0.1233
     10 CL         67.5864   94.7092    8.4373 Cl      1  UNL1       -0.0814
     11 C          67.2045   94.1605    9.7800 C.ar    1  UNL1        0.0682
     12 C          66.4577   95.0199   10.7566 C.ar    1  UNL1        0.0119
     13 C          66.0757   94.4712   12.0993 C.ar    1  UNL1       -0.0033
     14 C          66.4405   93.0630   12.4655 C.ar    1  UNL1       -0.0206
     15 C          67.1873   92.2037   11.4889 C.ar    1  UNL1        0.0080
     16 C          67.5693   92.7523   10.1462 C.ar    1  UNL1        0.0679
     17 CL         68.3160   91.8930    9.1696 Cl      1  UNL1       -0.0814
@<TRIPOS>BOND
     1    10    11    1
     2    11    12   ar
     3    12    13   ar
     4    13    14   ar
     5     1    14    1
     6     1     2    1
     7     2     3    1
     8     3     4    1
     9     5     4    1
    10     5     6    1
    11     6     7    1
    12     7     8    1
    13    14    15   ar
    14    15    16   ar
    15    16    17    1
    16    16    11   ar
    17     5     1    1
    18     8     1    1
    19     7     9    1
@<TRIPOS>MOLECULE
*****
 17 19 0 0 0
SMALL
GASTEIGER

@<TRIPOS>ATOM
      1 C          65.8002   92.4558   13.2324 C.3     1  UNL1        0.0347
      2 C          64.9850   92.0156   12.0527 C.3     1  UNL1        0.0054
      3 C          63.9802   91.0107   12.5327 C.3     1  UNL1        0.0004
      4 C          64.1743   90.8298   14.0091 C.3     1  UNL1        0.0017
      5 C          65.2992   91.7229   14.4415 C.3     1  UNL1        0.0208
      6 C          66.1144   92.1631   15.6212 C.3     1  UNL1        0.0689
      7 N          67.1193   93.1680   15.1413 N.3     1  UNL1       -0.2972
      8 C          66.9251   93.3489   13.6649 C.3     1  UNL1        0.0726
      9 H          68.0633   92.8296   15.3273 H       1  UNL1        0.1233
     10 CL         67.8045   95.3876    8.3964 Cl      1  UNL1       -0.0814
     11 C          67.3034   94.6547    9.6054 C.ar    1  UNL1        0.0682
     12 C          66.4813   95.3755   10.6322 C.ar    1  UNL1        0.0119
     13 C          65.9802   94.6426   11.8412 C.ar    1  UNL1       -0.0033
     14 C          66.3013   93.1887   12.0234 C.ar    1  UNL1       -0.0206
     15 C          67.1234   92.4678   10.9965 C.ar    1  UNL1        0.0080
     16 C          67.6245   93.2008    9.7876 C.ar    1  UNL1        0.0679
     17 CL         68.4466   92.4799    8.7608 Cl      1  UNL1       -0.0814
@<TRIPOS>BOND
     1    10    11    1
     2    11    12   ar
     3    12    13   ar
     4    13    14   ar
     5     1    14    1
     6     1     2    1
     7     2     3    1
     8     3     4    1
     9     5     4    1
    10     5     6    1
    11     6     7    1
    12     7     8    1
    13    14    15   ar
    14    15    16   ar
    15    16    17    1
    16    16    11   ar
    17     5     1    1
    18     8     1    1
    19     7     9    1
@<TRIPOS>MOLECULE
*****
 17 19 0 0 0
SMALL
GASTEIGER

@<TRIPOS>ATOM
      1 C          63.2177   90.6512   12.0755 C.3     1  UNL1        0.0347
      2 C          63.5406   91.0923   10.6787 C.3     1  UNL1        0.0054
      3 C          64.6708   92.0757   10.7527 C.3     1  UNL1        0.0004
      4 C          65.0464   92.2425   12.1953 C.3     1  UNL1        0.0017
      5 C          64.1483   91.3621   13.0129 C.3     1  UNL1        0.0208
      6 C          63.8254   90.9211   14.4098 C.3     1  UNL1        0.0689
      7 N          62.6952   89.9376   14.3357 N.3     1  UNL1       -0.2972
      8 C          62.3197   89.7709   12.8931 C.3     1  UNL1        0.0726
      9 H          61.8958   90.2886   14.8632 H       1  UNL1        0.1233
     10 CL         59.4950   87.8078    8.3264 Cl      1  UNL1       -0.0814
     11 C          60.4257   88.5186    9.2637 C.ar    1  UNL1        0.0682
     12 C          60.0491   89.8593    9.8211 C.ar    1  UNL1        0.0119
     13 C          60.9798   90.5701   10.7584 C.ar    1  UNL1       -0.0033
     14 C          62.2871   89.9403   11.1382 C.ar    1  UNL1       -0.0206
     15 C          62.6637   88.5996   10.5808 C.ar    1  UNL1        0.0080
     16 C          61.7330   87.8888    9.6436 C.ar    1  UNL1        0.0679
     17 CL         62.1096   86.5481    9.0862 Cl      1  UNL1       -0.0814
@<TRIPOS>BOND
     1    10    11    1
     2    11    12   ar
     3    12    13   ar
     4    13    14   ar
     5     1    14    1
     6     1     2    1
     7     2     3    1
     8     3     4    1
     9     5     4    1
    10     5     6    1
    11     6     7    1
    12     7     8    1
    13    14    15   ar
    14    15    16   ar
    15    16    17    1
    16    16    11   ar
    17     5     1    1
    18     8     1    1
    19     7     9    1
@<TRIPOS>MOLECULE
*****
 17 19 0 0 0
SMALL
GASTEIGER

@<TRIPOS>ATOM
      1 C          62.9514   84.6081   11.5449 C.3     1  UNL1        0.0347
      2 C          63.2462   84.4890   10.0790 C.3     1  UNL1        0.0054
      3 C          64.1035   83.2751    9.8758 C.3     1  UNL1        0.0004
      4 C          64.3385   82.6438   11.2160 C.3     1  UNL1        0.0017
      5 C          63.6264   83.4677   12.2476 C.3     1  UNL1        0.0208
      6 C          63.3316   83.5868   13.7135 C.3     1  UNL1        0.0689
      7 N          62.4743   84.8008   13.9168 N.3     1  UNL1       -0.2972
      8 C          62.2393   85.4320   12.5765 C.3     1  UNL1        0.0726
      9 H          62.9496   85.4612   14.5319 H       1  UNL1        0.1233
     10 CL         60.2512   89.1699    8.7344 Cl      1  UNL1       -0.0814
     11 C          60.9262   88.0295    9.4370 C.ar    1  UNL1        0.0682
     12 C          61.8662   88.3000   10.5742 C.ar    1  UNL1        0.0119
     13 C          62.5412   87.1595   11.2768 C.ar    1  UNL1       -0.0033
     14 C          62.2763   85.7485   10.8422 C.ar    1  UNL1       -0.0206
     15 C          61.3363   85.4780    9.7050 C.ar    1  UNL1        0.0080
     16 C          60.6613   86.6184    9.0024 C.ar    1  UNL1        0.0679
     17 CL         59.7213   86.3479    7.8653 Cl      1  UNL1       -0.0814
@<TRIPOS>BOND
     1    10    11    1
     2    11    12   ar
     3    12    13   ar
     4    13    14   ar
     5     1    14    1
     6     1     2    1
     7     2     3    1
     8     3     4    1
     9     5     4    1
    10     5     6    1
    11     6     7    1
    12     7     8    1
    13    14    15   ar
    14    15    16   ar
    15    16    17    1
    16    16    11   ar
    17     5     1    1
    18     8     1    1
    19     7     9    1
@<TRIPOS>MOLECULE
*****
 17 19 0 0 0
SMALL
GASTEIGER

@<TRIPOS>ATOM
      1 C          61.9960   85.7028   10.2088 C.3     1  UNL1        0.0347
      2 C          63.0677   84.7296    9.8160 C.3     1  UNL1        0.0054
      3 C          63.1466   84.7066    8.3182 C.3     1  UNL1        0.0004
      4 C          62.1236   85.6655    7.7854 C.3     1  UNL1        0.0017
      5 C          61.4125   86.2813    8.9538 C.3     1  UNL1        0.0208
      6 C          60.3408   87.2544    9.3466 C.3     1  UNL1        0.0689
      7 N          60.2619   87.2775   10.8444 N.3     1  UNL1       -0.2972
      8 C          61.2849   86.3185   11.3772 C.3     1  UNL1        0.0726
      9 H          59.3302   86.9928   11.1464 H       1  UNL1        0.1233
     10 CL         64.3298   83.3890   15.2287 Cl      1  UNL1       -0.0814
     11 C          63.7464   83.9674   13.9738 C.ar    1  UNL1        0.0682
     12 C          63.1271   83.0641   12.9489 C.ar    1  UNL1        0.0119
     13 C          62.5436   83.6426   11.6939 C.ar    1  UNL1       -0.0033
     14 C          62.5795   85.1244   11.4638 C.ar    1  UNL1       -0.0206
     15 C          63.1988   86.0277   12.4887 C.ar    1  UNL1        0.0080
     16 C          63.7822   85.4493   13.7436 C.ar    1  UNL1        0.0679
     17 CL         64.4015   86.3526   14.7685 Cl      1  UNL1       -0.0814
@<TRIPOS>BOND
     1    10    11    1
     2    11    12   ar
     3    12    13   ar
     4    13    14   ar
     5     1    14    1
     6     1     2    1
     7     2     3    1
     8     3     4    1
     9     5     4    1
    10     5     6    1
    11     6     7    1
    12     7     8    1
    13    14    15   ar
    14    15    16   ar
    15    16    17    1
    16    16    11   ar
    17     5     1    1
    18     8     1    1
    19     7     9    1
