@<TRIPOS>MOLECULE
*****
 36 39 0 0 0
SMALL
GASTEIGER

@<TRIPOS>ATOM
      1 C          62.5988   83.7754   14.2159 C.2     1  UNL1        0.0733
      2 C          62.7101   84.2122   15.6466 C.2     1  UNL1        0.1887
      3 O          62.4366   83.3621   16.8518 O.2     1  UNL1       -0.5020
      4 C          63.1429   85.6483   15.6604 C.2     1  UNL1        0.2869
      5 O          63.3783   86.4865   16.8819 O.2     1  UNL1       -0.2662
      6 N          63.2991   86.0991   14.2383 N.am    1  UNL1       -0.2463
      7 C          62.9628   84.9416   13.3455 C.3     1  UNL1        0.1338
      8 H          62.1693   82.4704   16.7453 H       1  UNL1        0.2924
      9 C          63.7181   87.4673   13.7880 C.ar    1  UNL1        0.0548
     10 C          64.5912   88.3118   14.6679 C.ar    1  UNL1        0.0149
     11 C          65.0101   89.6799   14.2176 C.ar    1  UNL1        0.0013
     12 C          64.5559   90.2035   12.8874 C.ar    1  UNL1        0.0006
     13 C          63.6827   89.3590   12.0075 C.ar    1  UNL1        0.0013
     14 C          63.2638   87.9909   12.4578 C.ar    1  UNL1        0.0149
     15 C          64.9748   91.5717   12.4371 C.ar    1  UNL1        0.0070
     16 C          64.7212   92.1712   11.0857 C.ar    1  UNL1        0.0075
     17 C          65.3105   93.5505   11.0725 C.ar    1  UNL1        0.0355
     18 S          65.9283   93.8034   12.4159 S.2     1  UNL1       -0.0859
     19 C          65.7208   92.5804   13.2592 C.ar    1  UNL1        0.0354
     20 C          62.9864   84.9489   11.8457 C.ar    1  UNL1        0.0344
     21 C          64.0155   84.1447   11.1079 C.ar    1  UNL1        0.0007
     22 C          64.0391   84.1520    9.6082 C.ar    1  UNL1       -0.0001
     23 C          63.0337   84.9635    8.8461 C.ar    1  UNL1        0.0031
     24 C          62.0047   85.7677    9.5839 C.ar    1  UNL1        0.0366
     25 C          61.9811   85.7604   11.0837 C.ar    1  UNL1        0.1366
     26 O          60.9520   86.5647   11.8215 O.3     1  UNL1       -0.4701
     27 C          60.1216   87.5749   11.0869 C.3     1  UNL1        0.2693
     28 C          59.6476   88.8113   11.7917 C.3     1  UNL1        0.3030
     29 S          59.7650   90.1482   11.1216 S.O     1  UNL1        0.0397
     30 C          60.7530   90.3461   10.0105 C.3     1  UNL1        0.3199
     31 O          58.8943   91.2872   11.5628 O.co2   1  UNL1       -0.6811
     32 C          62.1945   82.4119   13.7392 C.2     1  UNL1        0.1736
     33 O          61.0596   81.6859   13.8272 O.2     1  UNL1       -0.2915
     34 C          62.7237   80.7972   11.7738 C.3     1  UNL1        0.0081
     35 C          63.1722   81.5607   12.9845 C.3     1  UNL1        0.0618
     36 C          64.5986   81.4730   13.4407 C.3     1  UNL1        0.0081
@<TRIPOS>UNITY_ATOM_ATTR
29 1
charge 1
31 1
charge -1
@<TRIPOS>BOND
     1    34    35    1
     2    35    36    1
     3    35    32    1
     4    32    33    2
     5    32     1    1
     6     1     2    2
     7     2     3    1
     8     2     4    1
     9     4     5    2
    10     4     6   am
    11     6     9    1
    12     9    10   ar
    13    10    11   ar
    14    11    12   ar
    15    12    15    1
    16    15    16   ar
    17    16    17   ar
    18    17    18   ar
    19    18    19   ar
    20    12    13   ar
    21    13    14   ar
    22     6     7    1
    23     7    20    1
    24    20    21   ar
    25    21    22   ar
    26    22    23   ar
    27    23    24   ar
    28    24    25   ar
    29    25    26    1
    30    26    27    1
    31    27    28    1
    32    28    29    1
    33    29    30    1
    34    29    31    2
    35     7     1    1
    36    25    20   ar
    37    14     9   ar
    38    19    15   ar
    39     3     8    1
@<TRIPOS>MOLECULE
*****
 36 39 0 0 0
SMALL
GASTEIGER

@<TRIPOS>ATOM
      1 C          63.2386   88.2427   12.8669 C.2     1  UNL1        0.0733
      2 C          64.0871   87.8156   14.0278 C.2     1  UNL1        0.1887
      3 O          64.6920   88.7222   15.0585 O.2     1  UNL1       -0.5020
      4 C          64.2245   86.3228   13.9771 C.2     1  UNL1        0.2869
      5 O          64.9909   85.4745   14.9481 O.2     1  UNL1       -0.2662
      6 N          63.4609   85.8273   12.7848 N.am    1  UNL1       -0.2463
      7 C          62.8516   87.0138   12.0987 C.3     1  UNL1        0.1338
      8 H          64.5513   89.6472   15.0092 H       1  UNL1        0.2924
      9 C          63.3297   84.3963   12.3543 C.ar    1  UNL1        0.0548
     10 C          62.4755   83.4505   13.1452 C.ar    1  UNL1        0.0149
     11 C          62.3443   82.0196   12.7147 C.ar    1  UNL1        0.0013
     12 C          63.0674   81.5346   11.4932 C.ar    1  UNL1        0.0006
     13 C          63.9217   82.4804   10.7023 C.ar    1  UNL1        0.0013
     14 C          64.0529   83.9113   11.1329 C.ar    1  UNL1        0.0149
     15 C          62.9362   80.1037   11.0627 C.ar    1  UNL1        0.0070
     16 C          63.0410   79.5930    9.6562 C.ar    1  UNL1        0.0075
     17 C          62.8468   78.1059    9.6873 C.ar    1  UNL1        0.0355
     18 S          62.6220   77.6976   11.1131 S.2     1  UNL1       -0.0859
     19 C          62.6773   78.9322   11.9631 C.ar    1  UNL1        0.0354
     20 C          62.0041   86.9779   10.8616 C.ar    1  UNL1        0.0344
     21 C          62.6040   86.5542    9.5536 C.ar    1  UNL1        0.0007
     22 C          61.7565   86.5183    8.3165 C.ar    1  UNL1       -0.0001
     23 C          60.3092   86.9059    8.3873 C.ar    1  UNL1        0.0031
     24 C          59.7094   87.3296    9.6952 C.ar    1  UNL1        0.0366
     25 C          60.5569   87.3655   10.9323 C.ar    1  UNL1        0.1366
     26 O          59.9570   87.7892   12.2403 O.3     1  UNL1       -0.4701
     27 C          58.6516   88.5277   12.2626 C.3     1  UNL1        0.2693
     28 C          58.6194   89.9833   12.6236 C.3     1  UNL1        0.3030
     29 S          58.9315   91.0206   11.5860 S.O     1  UNL1        0.0397
     30 C          59.8920   90.7071   10.4773 C.3     1  UNL1        0.3199
     31 O          58.2830   92.3712   11.6571 O.co2   1  UNL1       -0.6811
     32 C          62.8460   89.6514   12.5328 C.2     1  UNL1        0.1736
     33 O          61.9195   90.5063   13.0157 O.2     1  UNL1       -0.2915
     34 C          63.1985   90.1425   10.0061 C.3     1  UNL1        0.0081
     35 C          63.5607   90.3901   11.4404 C.3     1  UNL1        0.0618
     36 C          64.6378   91.3767   11.7825 C.3     1  UNL1        0.0081
@<TRIPOS>UNITY_ATOM_ATTR
29 1
charge 1
31 1
charge -1
@<TRIPOS>BOND
     1    34    35    1
     2    35    36    1
     3    35    32    1
     4    32    33    2
     5    32     1    1
     6     1     2    2
     7     2     3    1
     8     2     4    1
     9     4     5    2
    10     4     6   am
    11     6     9    1
    12     9    10   ar
    13    10    11   ar
    14    11    12   ar
    15    12    15    1
    16    15    16   ar
    17    16    17   ar
    18    17    18   ar
    19    18    19   ar
    20    12    13   ar
    21    13    14   ar
    22     6     7    1
    23     7    20    1
    24    20    21   ar
    25    21    22   ar
    26    22    23   ar
    27    23    24   ar
    28    24    25   ar
    29    25    26    1
    30    26    27    1
    31    27    28    1
    32    28    29    1
    33    29    30    1
    34    29    31    2
    35     7     1    1
    36    25    20   ar
    37    14     9   ar
    38    19    15   ar
    39     3     8    1
@<TRIPOS>MOLECULE
*****
 36 39 0 0 0
SMALL
GASTEIGER

@<TRIPOS>ATOM
      1 C          61.9727   88.5239   10.9483 C.2     1  UNL1        0.0733
      2 C          61.9272   89.7181   10.0417 C.2     1  UNL1        0.1887
      3 O          61.0448   89.8794    8.8396 O.2     1  UNL1       -0.5020
      4 C          62.9191   90.7228   10.5485 C.2     1  UNL1        0.2869
      5 O          63.2027   92.0650    9.9420 O.2     1  UNL1       -0.2662
      6 N          63.5777   90.1494   11.7682 N.am    1  UNL1       -0.2463
      7 C          62.9928   88.7905   12.0153 C.3     1  UNL1        0.1338
      8 H          60.4527   89.1946    8.5977 H       1  UNL1        0.2924
      9 C          64.6355   90.8178   12.5956 C.ar    1  UNL1        0.0548
     10 C          64.6540   90.6297   14.0836 C.ar    1  UNL1        0.0149
     11 C          65.7117   91.2981   14.9109 C.ar    1  UNL1        0.0013
     12 C          66.7509   92.1545   14.2501 C.ar    1  UNL1        0.0006
     13 C          66.7324   92.3426   12.7621 C.ar    1  UNL1        0.0013
     14 C          65.6747   91.6743   11.9348 C.ar    1  UNL1        0.0149
     15 C          67.8087   92.8229   15.0775 C.ar    1  UNL1        0.0070
     16 C          68.8537   92.1293   15.9002 C.ar    1  UNL1        0.0075
     17 C          69.6980   93.1799   16.5586 C.ar    1  UNL1        0.0355
     18 S          69.1748   94.5228   16.1427 S.2     1  UNL1       -0.0859
     19 C          68.0071   94.3021   15.2274 C.ar    1  UNL1        0.0354
     20 C          63.3629   87.8612   13.1331 C.ar    1  UNL1        0.0344
     21 C          63.5221   88.3912   14.5273 C.ar    1  UNL1        0.0007
     22 C          63.8922   87.4619   15.6451 C.ar    1  UNL1       -0.0001
     23 C          64.1031   86.0027   15.3688 C.ar    1  UNL1        0.0031
     24 C          63.9438   85.4729   13.9746 C.ar    1  UNL1        0.0366
     25 C          63.5737   86.4021   12.8568 C.ar    1  UNL1        0.1366
     26 O          63.4145   85.8721   11.4625 O.3     1  UNL1       -0.4701
     27 C          63.5416   84.4008   11.2004 C.3     1  UNL1        0.2693
     28 C          62.4746   83.4594   11.6752 C.3     1  UNL1        0.3030
     29 S          62.8403   82.2775   12.5233 S.O     1  UNL1        0.0397
     30 C          64.2827   81.9304   12.7442 C.3     1  UNL1        0.3199
     31 O          61.7634   81.4427   13.1505 O.co2   1  UNL1       -0.6811
     32 C          61.1437   87.2812   10.8118 C.2     1  UNL1        0.1736
     33 O          60.5799   86.4285   11.6935 O.2     1  UNL1       -0.2915
     34 C          61.8315   86.0777    8.6144 C.3     1  UNL1        0.0081
     35 C          60.7902   86.7614    9.4499 C.3     1  UNL1        0.0618
     36 C          59.3950   86.9252    8.9235 C.3     1  UNL1        0.0081
@<TRIPOS>UNITY_ATOM_ATTR
29 1
charge 1
31 1
charge -1
@<TRIPOS>BOND
     1    34    35    1
     2    35    36    1
     3    35    32    1
     4    32    33    2
     5    32     1    1
     6     1     2    2
     7     2     3    1
     8     2     4    1
     9     4     5    2
    10     4     6   am
    11     6     9    1
    12     9    10   ar
    13    10    11   ar
    14    11    12   ar
    15    12    15    1
    16    15    16   ar
    17    16    17   ar
    18    17    18   ar
    19    18    19   ar
    20    12    13   ar
    21    13    14   ar
    22     6     7    1
    23     7    20    1
    24    20    21   ar
    25    21    22   ar
    26    22    23   ar
    27    23    24   ar
    28    24    25   ar
    29    25    26    1
    30    26    27    1
    31    27    28    1
    32    28    29    1
    33    29    30    1
    34    29    31    2
    35     7     1    1
    36    25    20   ar
    37    14     9   ar
    38    19    15   ar
    39     3     8    1
@<TRIPOS>MOLECULE
*****
 36 39 0 0 0
SMALL
GASTEIGER

@<TRIPOS>ATOM
      1 C          63.0262   88.8840   12.5423 C.2     1  UNL1        0.0733
      2 C          63.9362   88.5748   13.6940 C.2     1  UNL1        0.1887
      3 O          64.5682   89.5783   14.6124 O.2     1  UNL1       -0.5020
      4 C          64.1031   87.0858   13.7660 C.2     1  UNL1        0.2869
      5 O          64.9314   86.3390   14.7691 O.2     1  UNL1       -0.2662
      6 N          63.2963   86.4748   12.6589 N.am    1  UNL1       -0.2463
      7 C          62.6308   87.5861   11.9026 C.3     1  UNL1        0.1338
      8 H          64.4056   90.4929   14.4901 H       1  UNL1        0.2924
      9 C          63.1762   85.0097   12.3604 C.ar    1  UNL1        0.0548
     10 C          62.6026   84.0796   13.3879 C.ar    1  UNL1        0.0149
     11 C          62.4825   82.6145   13.0895 C.ar    1  UNL1        0.0013
     12 C          62.9360   82.0796   11.7635 C.ar    1  UNL1        0.0006
     13 C          63.5097   83.0097   10.7361 C.ar    1  UNL1        0.0013
     14 C          63.6298   84.4747   11.0345 C.ar    1  UNL1        0.0149
     15 C          62.8159   80.6144   11.4651 C.ar    1  UNL1        0.0070
     16 C          62.9514   79.9757   10.1146 C.ar    1  UNL1        0.0075
     17 C          62.7585   78.4973   10.2796 C.ar    1  UNL1        0.0355
     18 S          62.5037   78.2224   11.7320 S.2     1  UNL1       -0.0859
     19 C          62.5392   79.5308   12.4647 C.ar    1  UNL1        0.0354
     20 C          61.7282   87.4275   10.7150 C.ar    1  UNL1        0.0344
     21 C          62.2741   86.8923    9.4244 C.ar    1  UNL1        0.0007
     22 C          61.3716   86.7337    8.2368 C.ar    1  UNL1       -0.0001
     23 C          59.9232   87.1102    8.3398 C.ar    1  UNL1        0.0031
     24 C          59.3774   87.6453    9.6305 C.ar    1  UNL1        0.0366
     25 C          60.2800   87.8040   10.8180 C.ar    1  UNL1        0.1366
     26 O          59.7341   88.3391   12.1087 O.3     1  UNL1       -0.4701
     27 C          58.2790   88.6852   12.2214 C.3     1  UNL1        0.2693
     28 C          57.5371   88.4020   13.4940 C.3     1  UNL1        0.3030
     29 S          56.1163   87.9236   13.4434 S.O     1  UNL1        0.0397
     30 C          55.7645   86.5615   13.9639 C.3     1  UNL1        0.3199
     31 O          55.0474   88.8074   12.8723 O.co2   1  UNL1       -0.6811
     32 C          62.5885   90.2510   12.1068 C.2     1  UNL1        0.1736
     33 O          61.4128   90.9138   12.1386 O.2     1  UNL1       -0.2915
     34 C          63.4935   91.5016   10.0171 C.3     1  UNL1        0.0081
     35 C          63.5763   91.1913   11.4822 C.3     1  UNL1        0.0618
     36 C          64.6471   91.8212   12.3229 C.3     1  UNL1        0.0081
@<TRIPOS>UNITY_ATOM_ATTR
29 1
charge 1
31 1
charge -1
@<TRIPOS>BOND
     1    34    35    1
     2    35    36    1
     3    35    32    1
     4    32    33    2
     5    32     1    1
     6     1     2    2
     7     2     3    1
     8     2     4    1
     9     4     5    2
    10     4     6   am
    11     6     9    1
    12     9    10   ar
    13    10    11   ar
    14    11    12   ar
    15    12    15    1
    16    15    16   ar
    17    16    17   ar
    18    17    18   ar
    19    18    19   ar
    20    12    13   ar
    21    13    14   ar
    22     6     7    1
    23     7    20    1
    24    20    21   ar
    25    21    22   ar
    26    22    23   ar
    27    23    24   ar
    28    24    25   ar
    29    25    26    1
    30    26    27    1
    31    27    28    1
    32    28    29    1
    33    29    30    1
    34    29    31    2
    35     7     1    1
    36    25    20   ar
    37    14     9   ar
    38    19    15   ar
    39     3     8    1
