@<TRIPOS>MOLECULE
*****
 19 22 0 0 0
SMALL
GASTEIGER

@<TRIPOS>ATOM
      1 C          64.4320   82.3487   12.2353 C.ar    1  UNL1       -0.0000
      2 C          63.5311   83.0295   13.2226 C.ar    1  UNL1       -0.0000
      3 C          62.6455   84.1554   12.7777 C.ar    1  UNL1       -0.0000
      4 C          62.6608   84.6005   11.3454 C.ar    1  UNL1       -0.0003
      5 C          61.7752   85.7264   10.9004 C.ar    1  UNL1       -0.0042
      6 C          61.7904   86.1716    9.4681 C.ar    1  UNL1       -0.0215
      7 C          62.6914   85.4908    8.4806 C.ar    1  UNL1       -0.0042
      8 C          63.5770   84.3649    8.9256 C.ar    1  UNL1       -0.0003
      9 C          63.5617   83.9198   10.3580 C.ar    1  UNL1       -0.0000
     10 C          64.4473   82.7938   10.8030 C.ar    1  UNL1       -0.0000
     11 C          60.9048   87.2975    9.0231 C.3     1  UNL1        0.0347
     12 C          61.9527   87.8644    9.9342 C.3     1  UNL1        0.0054
     13 C          61.7148   89.3406   10.0524 C.3     1  UNL1        0.0004
     14 C          60.5198   89.6861    9.2143 C.3     1  UNL1        0.0017
     15 C          60.0192   88.4234    8.5781 C.3     1  UNL1        0.0208
     16 C          58.9712   87.8564    7.6669 C.3     1  UNL1        0.0689
     17 N          59.2091   86.3801    7.5487 N.3     1  UNL1       -0.2972
     18 C          60.4041   86.0347    8.3869 C.3     1  UNL1        0.0726
     19 H          59.3869   86.1351    6.5747 H       1  UNL1        0.1233
@<TRIPOS>BOND
     1     1     2   ar
     2     2     3   ar
     3     3     4   ar
     4     4     5   ar
     5     5     6   ar
     6    11     6    1
     7    11    12    1
     8    12    13    1
     9    13    14    1
    10    15    14    1
    11    15    16    1
    12    16    17    1
    13    17    18    1
    14     6     7   ar
    15     7     8   ar
    16     8     9   ar
    17     9    10   ar
    18    10     1   ar
    19     9     4   ar
    20    15    11    1
    21    18    11    1
    22    17    19    1
@<TRIPOS>MOLECULE
*****
 19 22 0 0 0
SMALL
GASTEIGER

@<TRIPOS>ATOM
      1 C          64.3829   82.2775   12.1362 C.ar    1  UNL1       -0.0000
      2 C          63.5318   82.9652   13.1621 C.ar    1  UNL1       -0.0000
      3 C          62.6795   84.1348   12.7676 C.ar    1  UNL1       -0.0000
      4 C          62.6783   84.6166   11.3471 C.ar    1  UNL1       -0.0003
      5 C          61.8260   85.7862   10.9526 C.ar    1  UNL1       -0.0042
      6 C          61.8248   86.2680    9.5321 C.ar    1  UNL1       -0.0215
      7 C          62.6759   85.5803    8.5061 C.ar    1  UNL1       -0.0042
      8 C          63.5282   84.4107    8.9006 C.ar    1  UNL1       -0.0003
      9 C          63.5294   83.9289   10.3212 C.ar    1  UNL1       -0.0000
     10 C          64.3817   82.7593   10.7157 C.ar    1  UNL1       -0.0000
     11 C          60.9724   87.4376    9.1376 C.3     1  UNL1        0.0347
     12 C          60.4475   86.2226    8.4319 C.3     1  UNL1        0.0054
     13 C          59.2708   86.6412    7.6012 C.3     1  UNL1        0.0004
     14 C          59.0685   88.1150    7.7936 C.3     1  UNL1        0.0017
     15 C          60.1201   88.6072    8.7430 C.3     1  UNL1        0.0208
     16 C          60.6451   89.8222    9.4487 C.3     1  UNL1        0.0689
     17 N          61.8218   89.4037   10.2794 N.3     1  UNL1       -0.2972
     18 C          62.0241   87.9299   10.0871 C.3     1  UNL1        0.0726
     19 H          61.6395   89.6026   11.2631 H       1  UNL1        0.1233
@<TRIPOS>BOND
     1     1     2   ar
     2     2     3   ar
     3     3     4   ar
     4     4     5   ar
     5     5     6   ar
     6    11     6    1
     7    11    12    1
     8    12    13    1
     9    13    14    1
    10    15    14    1
    11    15    16    1
    12    16    17    1
    13    17    18    1
    14     6     7   ar
    15     7     8   ar
    16     8     9   ar
    17     9    10   ar
    18    10     1   ar
    19     9     4   ar
    20    15    11    1
    21    18    11    1
    22    17    19    1
@<TRIPOS>MOLECULE
*****
 19 22 0 0 0
SMALL
GASTEIGER

@<TRIPOS>ATOM
      1 C          64.0720   89.4624   14.0007 C.ar    1  UNL1       -0.0000
      2 C          63.2909   89.2972   12.7308 C.ar    1  UNL1       -0.0000
      3 C          62.9493   87.9239   12.2336 C.ar    1  UNL1       -0.0000
      4 C          63.3887   86.7157   13.0063 C.ar    1  UNL1       -0.0003
      5 C          63.0471   85.3423   12.5091 C.ar    1  UNL1       -0.0042
      6 C          63.4865   84.1341   13.2818 C.ar    1  UNL1       -0.0215
      7 C          64.2675   84.2992   14.5518 C.ar    1  UNL1       -0.0042
      8 C          64.6092   85.6725   15.0490 C.ar    1  UNL1       -0.0003
      9 C          64.1697   86.8808   14.2762 C.ar    1  UNL1       -0.0000
     10 C          64.5114   88.2541   14.7734 C.ar    1  UNL1       -0.0000
     11 C          63.1448   82.7608   12.7846 C.3     1  UNL1        0.0347
     12 C          63.8533   83.4900   11.6819 C.3     1  UNL1        0.0054
     13 C          63.9496   82.5674   10.5031 C.3     1  UNL1        0.0004
     14 C          63.3005   81.2679   10.8774 C.3     1  UNL1        0.0017
     15 C          62.8032   81.3874   12.2874 C.3     1  UNL1        0.0208
     16 C          62.0947   80.6582   13.3902 C.3     1  UNL1        0.0689
     17 N          61.9984   81.5807   14.5690 N.3     1  UNL1       -0.2972
     18 C          62.6475   82.8802   14.1947 C.3     1  UNL1        0.0726
     19 H          62.4801   81.1712   15.3694 H       1  UNL1        0.1233
@<TRIPOS>BOND
     1     1     2   ar
     2     2     3   ar
     3     3     4   ar
     4     4     5   ar
     5     5     6   ar
     6    11     6    1
     7    11    12    1
     8    12    13    1
     9    13    14    1
    10    15    14    1
    11    15    16    1
    12    16    17    1
    13    17    18    1
    14     6     7   ar
    15     7     8   ar
    16     8     9   ar
    17     9    10   ar
    18    10     1   ar
    19     9     4   ar
    20    15    11    1
    21    18    11    1
    22    17    19    1
@<TRIPOS>MOLECULE
*****
 19 22 0 0 0
SMALL
GASTEIGER

@<TRIPOS>ATOM
      1 C          63.0192   86.0061   17.2626 C.ar    1  UNL1       -0.0000
      2 C          63.6896   85.4971   16.0210 C.ar    1  UNL1       -0.0000
      3 C          64.1951   86.4639   14.9915 C.ar    1  UNL1       -0.0000
      4 C          64.0304   87.9396   15.2037 C.ar    1  UNL1       -0.0003
      5 C          64.5360   88.9064   14.1743 C.ar    1  UNL1       -0.0042
      6 C          64.3712   90.3822   14.3865 C.ar    1  UNL1       -0.0215
      7 C          63.7009   90.8912   15.6281 C.ar    1  UNL1       -0.0042
      8 C          63.1953   89.9244   16.6575 C.ar    1  UNL1       -0.0003
      9 C          63.3601   88.4486   16.4453 C.ar    1  UNL1       -0.0000
     10 C          62.8545   87.4818   17.4747 C.ar    1  UNL1       -0.0000
     11 C          64.8768   91.3489   13.3571 C.3     1  UNL1        0.0347
     12 C          63.7617   90.5572   12.7412 C.3     1  UNL1        0.0054
     13 C          63.5780   91.0346   11.3311 C.3     1  UNL1        0.0004
     14 C          64.5797   92.1215   11.0756 C.3     1  UNL1        0.0017
     15 C          65.3824   92.3157   12.3276 C.3     1  UNL1        0.0208
     16 C          66.4976   93.1075   12.9436 C.3     1  UNL1        0.0689
     17 N          66.6813   92.6301   14.3537 N.3     1  UNL1       -0.2972
     18 C          65.6796   91.5432   14.6092 C.3     1  UNL1        0.0726
     19 H          66.5282   93.4016   15.0030 H       1  UNL1        0.1233
@<TRIPOS>BOND
     1     1     2   ar
     2     2     3   ar
     3     3     4   ar
     4     4     5   ar
     5     5     6   ar
     6    11     6    1
     7    11    12    1
     8    12    13    1
     9    13    14    1
    10    15    14    1
    11    15    16    1
    12    16    17    1
    13    17    18    1
    14     6     7   ar
    15     7     8   ar
    16     8     9   ar
    17     9    10   ar
    18    10     1   ar
    19     9     4   ar
    20    15    11    1
    21    18    11    1
    22    17    19    1
@<TRIPOS>MOLECULE
*****
 19 22 0 0 0
SMALL
GASTEIGER

@<TRIPOS>ATOM
      1 C          64.1983   90.4929   13.5835 C.ar    1  UNL1       -0.0000
      2 C          63.8198   91.3465   12.4096 C.ar    1  UNL1       -0.0000
      3 C          63.1446   90.7298   11.2206 C.ar    1  UNL1       -0.0000
      4 C          62.8479   89.2596   11.2055 C.ar    1  UNL1       -0.0003
      5 C          62.1726   88.6429   10.0165 C.ar    1  UNL1       -0.0042
      6 C          61.8759   87.1726   10.0014 C.ar    1  UNL1       -0.0215
      7 C          62.2545   86.3190   11.1753 C.ar    1  UNL1       -0.0042
      8 C          62.9297   86.9357   12.3643 C.ar    1  UNL1       -0.0003
      9 C          63.2264   88.4060   12.3794 C.ar    1  UNL1       -0.0000
     10 C          63.9016   89.0227   13.5684 C.ar    1  UNL1       -0.0000
     11 C          61.2007   86.5559    8.8123 C.3     1  UNL1        0.0347
     12 C          62.5999   86.0198    8.8806 C.3     1  UNL1        0.0054
     13 C          62.7895   85.0718    7.7337 C.3     1  UNL1        0.0004
     14 C          61.5074   85.0220    6.9567 C.3     1  UNL1        0.0017
     15 C          60.5255   85.9392    7.6233 C.3     1  UNL1        0.0208
     16 C          59.1262   86.4754    7.5551 C.3     1  UNL1        0.0689
     17 N          58.9367   87.4234    8.7020 N.3     1  UNL1       -0.2972
     18 C          60.2188   87.4732    9.4790 C.3     1  UNL1        0.0726
     19 H          58.1807   87.0938    9.3022 H       1  UNL1        0.1233
@<TRIPOS>BOND
     1     1     2   ar
     2     2     3   ar
     3     3     4   ar
     4     4     5   ar
     5     5     6   ar
     6    11     6    1
     7    11    12    1
     8    12    13    1
     9    13    14    1
    10    15    14    1
    11    15    16    1
    12    16    17    1
    13    17    18    1
    14     6     7   ar
    15     7     8   ar
    16     8     9   ar
    17     9    10   ar
    18    10     1   ar
    19     9     4   ar
    20    15    11    1
    21    18    11    1
    22    17    19    1
@<TRIPOS>MOLECULE
*****
 19 22 0 0 0
SMALL
GASTEIGER

@<TRIPOS>ATOM
      1 C          59.9912   86.3669    7.8030 C.ar    1  UNL1       -0.0000
      2 C          61.3044   85.7598    8.1988 C.ar    1  UNL1       -0.0000
      3 C          62.2183   86.4939    9.1347 C.ar    1  UNL1       -0.0000
      4 C          61.8190   87.8352    9.6747 C.ar    1  UNL1       -0.0003
      5 C          62.7329   88.5693   10.6105 C.ar    1  UNL1       -0.0042
      6 C          62.3336   89.9105   11.1505 C.ar    1  UNL1       -0.0215
      7 C          61.0202   90.5177   10.7546 C.ar    1  UNL1       -0.0042
      8 C          60.1063   89.7835    9.8188 C.ar    1  UNL1       -0.0003
      9 C          60.5057   88.4422    9.2788 C.ar    1  UNL1       -0.0000
     10 C          59.5918   87.7081    8.3429 C.ar    1  UNL1       -0.0000
     11 C          63.2475   90.6446   12.0863 C.3     1  UNL1        0.0347
     12 C          63.5804   91.0678   10.6864 C.3     1  UNL1        0.0054
     13 C          64.7000   92.0635   10.7569 C.3     1  UNL1        0.0004
     14 C          65.0591   92.2556   12.2006 C.3     1  UNL1        0.0017
     15 C          64.1614   91.3788   13.0222 C.3     1  UNL1        0.0208
     16 C          63.8284   90.9556   14.4222 C.3     1  UNL1        0.0689
     17 N          62.7088   89.9599   14.3516 N.3     1  UNL1       -0.2972
     18 C          62.3497   89.7678   12.9080 C.3     1  UNL1        0.0726
     19 H          61.9006   90.3108   14.8656 H       1  UNL1        0.1233
@<TRIPOS>BOND
     1     1     2   ar
     2     2     3   ar
     3     3     4   ar
     4     4     5   ar
     5     5     6   ar
     6    11     6    1
     7    11    12    1
     8    12    13    1
     9    13    14    1
    10    15    14    1
    11    15    16    1
    12    16    17    1
    13    17    18    1
    14     6     7   ar
    15     7     8   ar
    16     8     9   ar
    17     9    10   ar
    18    10     1   ar
    19     9     4   ar
    20    15    11    1
    21    18    11    1
    22    17    19    1
@<TRIPOS>MOLECULE
*****
 19 22 0 0 0
SMALL
GASTEIGER

@<TRIPOS>ATOM
      1 C          63.1382   90.2147   12.0452 C.ar    1  UNL1       -0.0000
      2 C          62.3658   89.6394   10.8952 C.ar    1  UNL1       -0.0000
      3 C          62.1741   88.1556   10.7880 C.ar    1  UNL1       -0.0000
      4 C          62.7549   87.2470   11.8307 C.ar    1  UNL1       -0.0003
      5 C          62.5632   85.7632   11.7235 C.ar    1  UNL1       -0.0042
      6 C          63.1440   84.8546   12.7661 C.ar    1  UNL1       -0.0215
      7 C          63.9164   85.4299   13.9161 C.ar    1  UNL1       -0.0042
      8 C          64.1081   86.9138   14.0234 C.ar    1  UNL1       -0.0003
      9 C          63.5273   87.8223   12.9806 C.ar    1  UNL1       -0.0000
     10 C          63.7190   89.3061   13.0878 C.ar    1  UNL1       -0.0000
     11 C          62.9523   83.3708   12.6589 C.3     1  UNL1        0.0347
     12 C          63.5362   83.8574   11.3658 C.3     1  UNL1        0.0054
     13 C          63.7054   82.6743   10.4594 C.3     1  UNL1        0.0004
     14 C          63.2261   81.4565   11.1923 C.3     1  UNL1        0.0017
     15 C          62.7606   81.8870   12.5517 C.3     1  UNL1        0.0208
     16 C          62.1767   81.4004   13.8448 C.3     1  UNL1        0.0689
     17 N          62.0074   82.5835   14.7513 N.3     1  UNL1       -0.2972
     18 C          62.4868   83.8012   14.0183 C.3     1  UNL1        0.0726
     19 H          62.5579   82.4510   15.5997 H       1  UNL1        0.1233
@<TRIPOS>BOND
     1     1     2   ar
     2     2     3   ar
     3     3     4   ar
     4     4     5   ar
     5     5     6   ar
     6    11     6    1
     7    11    12    1
     8    12    13    1
     9    13    14    1
    10    15    14    1
    11    15    16    1
    12    16    17    1
    13    17    18    1
    14     6     7   ar
    15     7     8   ar
    16     8     9   ar
    17     9    10   ar
    18    10     1   ar
    19     9     4   ar
    20    15    11    1
    21    18    11    1
    22    17    19    1
@<TRIPOS>MOLECULE
*****
 19 22 0 0 0
SMALL
GASTEIGER

@<TRIPOS>ATOM
      1 C          59.7447   88.9857    8.0822 C.ar    1  UNL1       -0.0000
      2 C          59.4144   87.6065    7.5935 C.ar    1  UNL1       -0.0000
      3 C          60.0171   86.4084    8.2653 C.ar    1  UNL1       -0.0000
      4 C          60.9501   86.5894    9.4257 C.ar    1  UNL1       -0.0003
      5 C          61.5528   85.3913   10.0975 C.ar    1  UNL1       -0.0042
      6 C          62.4858   85.5723   11.2580 C.ar    1  UNL1       -0.0215
      7 C          62.8161   86.9515   11.7467 C.ar    1  UNL1       -0.0042
      8 C          62.2135   88.1496   11.0749 C.ar    1  UNL1       -0.0003
      9 C          61.2804   87.9686    9.9144 C.ar    1  UNL1       -0.0000
     10 C          60.6777   89.1667    9.2426 C.ar    1  UNL1       -0.0000
     11 C          63.0885   84.3742   11.9298 C.3     1  UNL1        0.0347
     12 C          63.3722   84.2733   10.4604 C.3     1  UNL1        0.0054
     13 C          64.1502   83.0129   10.2240 C.3     1  UNL1        0.0004
     14 C          64.3473   82.3348   11.5473 C.3     1  UNL1        0.0017
     15 C          63.6912   83.1761   12.6016 C.3     1  UNL1        0.0208
     16 C          63.4075   83.2771   14.0710 C.3     1  UNL1        0.0689
     17 N          62.6295   84.5375   14.3075 N.3     1  UNL1       -0.2972
     18 C          62.4323   85.2156   12.9841 C.3     1  UNL1        0.0726
     19 H          63.1471   85.1509   14.9370 H       1  UNL1        0.1233
@<TRIPOS>BOND
     1     1     2   ar
     2     2     3   ar
     3     3     4   ar
     4     4     5   ar
     5     5     6   ar
     6    11     6    1
     7    11    12    1
     8    12    13    1
     9    13    14    1
    10    15    14    1
    11    15    16    1
    12    16    17    1
    13    17    18    1
    14     6     7   ar
    15     7     8   ar
    16     8     9   ar
    17     9    10   ar
    18    10     1   ar
    19     9     4   ar
    20    15    11    1
    21    18    11    1
    22    17    19    1
@<TRIPOS>MOLECULE
*****
 19 22 0 0 0
SMALL
GASTEIGER

@<TRIPOS>ATOM
      1 C          59.7106   86.3530    7.8199 C.ar    1  UNL1       -0.0000
      2 C          61.0462   85.7207    8.0773 C.ar    1  UNL1       -0.0000
      3 C          62.0703   86.4410    8.9033 C.ar    1  UNL1       -0.0000
      4 C          61.7588   87.7936    9.4720 C.ar    1  UNL1       -0.0003
      5 C          62.7829   88.5139   10.2981 C.ar    1  UNL1       -0.0042
      6 C          62.4714   89.8665   10.8668 C.ar    1  UNL1       -0.0215
      7 C          61.1357   90.4988   10.6094 C.ar    1  UNL1       -0.0042
      8 C          60.1116   89.7786    9.7833 C.ar    1  UNL1       -0.0003
      9 C          60.4232   88.4259    9.2146 C.ar    1  UNL1       -0.0000
     10 C          59.3991   87.7056    8.3885 C.ar    1  UNL1       -0.0000
     11 C          63.4955   90.5868   11.6929 C.3     1  UNL1        0.0347
     12 C          62.9834   89.4282   12.4962 C.3     1  UNL1        0.0054
     13 C          63.6910   89.4324   13.8188 C.3     1  UNL1        0.0004
     14 C          64.6404   90.5937   13.8328 C.3     1  UNL1        0.0017
     15 C          64.5196   91.3070   12.5190 C.3     1  UNL1        0.0208
     16 C          65.0317   92.4656   11.7156 C.3     1  UNL1        0.0689
     17 N          64.3241   92.4614   10.3930 N.3     1  UNL1       -0.2972
     18 C          63.3747   91.3002   10.3789 C.3     1  UNL1        0.0726
     19 H          65.0025   92.3629    9.6377 H       1  UNL1        0.1233
@<TRIPOS>BOND
     1     1     2   ar
     2     2     3   ar
     3     3     4   ar
     4     4     5   ar
     5     5     6   ar
     6    11     6    1
     7    11    12    1
     8    12    13    1
     9    13    14    1
    10    15    14    1
    11    15    16    1
    12    16    17    1
    13    17    18    1
    14     6     7   ar
    15     7     8   ar
    16     8     9   ar
    17     9    10   ar
    18    10     1   ar
    19     9     4   ar
    20    15    11    1
    21    18    11    1
    22    17    19    1
