@<TRIPOS>MOLECULE
*****
 34 38 0 0 0
SMALL
GASTEIGER

@<TRIPOS>ATOM
      1 C          61.4519   88.6162   11.2590 C.3     1  UNL1        0.1096
      2 C          60.4388   89.2860   10.3785 C.3     1  UNL1        0.1622
      3 O          59.7791   88.5153    9.2737 O.3     1  UNL1       -0.3502
      4 C          60.1324   87.0749    9.0492 C.3     1  UNL1        0.1637
      5 C          61.1454   86.4051    9.9296 C.3     1  UNL1        0.1257
      6 N          61.8052   87.1758   11.0346 N.am    1  UNL1       -0.2723
      7 C          62.8182   86.5061   11.9150 C.2     1  UNL1        0.2506
      8 O          63.4779   87.2768   13.0199 O.2     1  UNL1       -0.2699
      9 C          63.1715   85.0657   11.6905 C.ar    1  UNL1        0.0729
     10 C          63.3275   84.5405   10.2942 C.ar    1  UNL1        0.0061
     11 C          63.6808   83.1001   10.0698 C.ar    1  UNL1        0.0002
     12 C          63.8782   82.1848   11.2416 C.ar    1  UNL1        0.0016
     13 C          63.7222   82.7100   12.6380 C.ar    1  UNL1        0.0211
     14 C          63.3689   84.1505   12.8624 C.ar    1  UNL1        0.1072
     15 N          63.2130   84.6756   14.2589 N.ar    1  UNL1       -0.1477
     16 N          64.3040   85.2547   15.1100 N.ar    1  UNL1       -0.1447
     17 C          63.7040   85.6509   16.4265 C.ar    1  UNL1        0.1446
     18 C          62.2422   85.3167   16.3889 C.ar    1  UNL1        0.1446
     19 N          61.9387   84.7140   15.0493 N.ar    1  UNL1       -0.1447
     20 C          62.1116   89.3869   12.3639 C.3     1  UNL1        0.0487
     21 C          65.3211   92.3921   11.4059 C.ar    1  UNL1        0.1387
     22 C          64.2816   92.0520   10.3794 C.ar    1  UNL1        0.0366
     23 C          63.2118   91.0503   10.6988 C.ar    1  UNL1       -0.0011
     24 C          63.1814   90.3887   12.0446 C.ar    1  UNL1       -0.0202
     25 C          64.2209   90.7288   13.0711 C.ar    1  UNL1       -0.0011
     26 C          65.2907   91.7305   12.7518 C.ar    1  UNL1        0.0352
     27 C          66.3302   92.0706   13.7784 C.ar    1  UNL1        0.0221
     28 C          65.9144   92.4668   15.1640 C.ar    1  UNL1        0.0032
     29 C          66.9538   92.8069   16.1906 C.ar    1  UNL1        0.0207
     30 C          68.4092   92.7509   15.8315 C.ar    1  UNL1        0.0989
     31 N          68.8250   92.3547   14.4459 N.ar    1  UNL1       -0.2423
     32 C          67.7855   92.0146   13.4193 C.ar    1  UNL1        0.0989
     33 C          66.1269   94.8585   11.2736 C.3     1  UNL1        0.2525
     34 O          66.3909   93.3939   11.0866 O.3     1  UNL1       -0.4714
@<TRIPOS>BOND
     1    33    34    1
     2    34    21    1
     3    21    22   ar
     4    22    23   ar
     5    23    24   ar
     6    24    20    1
     7     1    20    1
     8     1     2    1
     9     2     3    1
    10     3     4    1
    11     4     5    1
    12     5     6    1
    13     6     7   am
    14     7     8    2
    15     7     9    1
    16     9    10   ar
    17    10    11   ar
    18    11    12   ar
    19    12    13   ar
    20    13    14   ar
    21    14    15    1
    22    15    16   ar
    23    16    17   ar
    24    17    18   ar
    25    18    19   ar
    26    24    25   ar
    27    25    26   ar
    28    26    27    1
    29    27    28   ar
    30    28    29   ar
    31    29    30   ar
    32    30    31   ar
    33    31    32   ar
    34    26    21   ar
    35    32    27   ar
    36     6     1    1
    37    14     9   ar
    38    19    15   ar
@<TRIPOS>MOLECULE
*****
 34 38 0 0 0
SMALL
GASTEIGER

@<TRIPOS>ATOM
      1 C          62.1649   89.5647   11.8857 C.3     1  UNL1        0.1096
      2 C          61.4800   90.6116   11.0580 C.3     1  UNL1        0.1622
      3 O          60.9195   90.2561    9.7128 O.3     1  UNL1       -0.3502
      4 C          61.0440   88.8537    9.1953 C.3     1  UNL1        0.1637
      5 C          61.7289   87.8069   10.0229 C.3     1  UNL1        0.1257
      6 N          62.2894   88.1623   11.3681 N.am    1  UNL1       -0.2723
      7 C          62.9743   87.1155   12.1957 C.2     1  UNL1        0.2506
      8 O          63.5348   87.4710   13.5408 O.2     1  UNL1       -0.2699
      9 C          63.0988   85.7131   11.6781 C.ar    1  UNL1        0.0729
     10 C          63.1232   85.4586   10.2001 C.ar    1  UNL1        0.0061
     11 C          63.2476   84.0562    9.6825 C.ar    1  UNL1        0.0002
     12 C          63.3477   82.9084   10.6429 C.ar    1  UNL1        0.0016
     13 C          63.3234   83.1630   12.1210 C.ar    1  UNL1        0.0211
     14 C          63.1989   84.5653   12.6385 C.ar    1  UNL1        0.1072
     15 N          63.1745   84.8199   14.1166 N.ar    1  UNL1       -0.1477
     16 N          64.3628   85.1316   14.9773 N.ar    1  UNL1       -0.1447
     17 C          63.8804   85.3117   16.3861 C.ar    1  UNL1        0.1446
     18 C          62.3938   85.1113   16.3961 C.ar    1  UNL1        0.1446
     19 N          61.9576   84.8073   14.9935 N.ar    1  UNL1       -0.1447
     20 C          62.7254   89.9202   13.2308 C.3     1  UNL1        0.0487
     21 C          66.6785   92.0495   13.5301 C.ar    1  UNL1        0.1387
     22 C          66.1816   91.2252   14.6805 C.ar    1  UNL1        0.0366
     23 C          64.8639   90.5154   14.5808 C.ar    1  UNL1       -0.0011
     24 C          64.0431   90.6300   13.3305 C.ar    1  UNL1       -0.0202
     25 C          64.5400   91.4542   12.1801 C.ar    1  UNL1       -0.0011
     26 C          65.8577   92.1640   12.2798 C.ar    1  UNL1        0.0352
     27 C          66.3545   92.9883   11.1293 C.ar    1  UNL1        0.0221
     28 C          67.4195   92.4459   10.2228 C.ar    1  UNL1        0.0032
     29 C          67.9164   93.2701    9.0723 C.ar    1  UNL1        0.0207
     30 C          67.3483   94.6368    8.8282 C.ar    1  UNL1        0.0989
     31 N          66.2833   95.1792    9.7347 N.ar    1  UNL1       -0.2423
     32 C          65.7864   94.3549   10.8852 C.ar    1  UNL1        0.0989
     33 C          68.7561   92.7516   14.9230 C.3     1  UNL1        0.2525
     34 O          67.9962   92.7592   13.6298 O.3     1  UNL1       -0.4714
@<TRIPOS>BOND
     1    33    34    1
     2    34    21    1
     3    21    22   ar
     4    22    23   ar
     5    23    24   ar
     6    24    20    1
     7     1    20    1
     8     1     2    1
     9     2     3    1
    10     3     4    1
    11     4     5    1
    12     5     6    1
    13     6     7   am
    14     7     8    2
    15     7     9    1
    16     9    10   ar
    17    10    11   ar
    18    11    12   ar
    19    12    13   ar
    20    13    14   ar
    21    14    15    1
    22    15    16   ar
    23    16    17   ar
    24    17    18   ar
    25    18    19   ar
    26    24    25   ar
    27    25    26   ar
    28    26    27    1
    29    27    28   ar
    30    28    29   ar
    31    29    30   ar
    32    30    31   ar
    33    31    32   ar
    34    26    21   ar
    35    32    27   ar
    36     6     1    1
    37    14     9   ar
    38    19    15   ar
@<TRIPOS>MOLECULE
*****
 34 38 0 0 0
SMALL
GASTEIGER

@<TRIPOS>ATOM
      1 C          63.2872   88.7778   15.4116 C.3     1  UNL1        0.1096
      2 C          63.1372   89.1155   16.8654 C.3     1  UNL1        0.1622
      3 O          63.0774   88.0195   17.8877 O.3     1  UNL1       -0.3502
      4 C          63.1676   86.5857   17.4563 C.3     1  UNL1        0.1637
      5 C          63.3176   86.2480   16.0026 C.3     1  UNL1        0.1257
      6 N          63.3774   87.3440   14.9802 N.am    1  UNL1       -0.2723
      7 C          63.5275   87.0063   13.5265 C.2     1  UNL1        0.2506
      8 O          63.5873   88.1023   12.5042 O.2     1  UNL1       -0.2699
      9 C          63.6177   85.5725   13.0950 C.ar    1  UNL1        0.0729
     10 C          64.4526   84.6043   13.8795 C.ar    1  UNL1        0.0061
     11 C          64.5428   83.1705   13.4480 C.ar    1  UNL1        0.0002
     12 C          63.7981   82.7049   12.2321 C.ar    1  UNL1        0.0016
     13 C          62.9631   83.6731   11.4476 C.ar    1  UNL1        0.0211
     14 C          62.8729   85.1069   11.8791 C.ar    1  UNL1        0.1072
     15 N          62.0379   86.0751   11.0945 N.ar    1  UNL1       -0.1477
     16 N          62.2609   86.4762    9.6664 N.ar    1  UNL1       -0.1447
     17 C          61.1942   87.4611    9.2896 C.ar    1  UNL1        0.1446
     18 C          60.3119   87.6687   10.4848 C.ar    1  UNL1        0.1446
     19 N          60.8334   86.8121   11.6003 N.ar    1  UNL1       -0.1447
     20 C          63.3471   89.8738   14.3894 C.3     1  UNL1        0.0487
     21 C          66.6919   92.8818   14.5086 C.ar    1  UNL1        0.1387
     22 C          66.0859   92.3829   15.7868 C.ar    1  UNL1        0.0366
     23 C          64.9710   91.3803   15.7471 C.ar    1  UNL1       -0.0011
     24 C          64.4620   90.8765   14.4291 C.ar    1  UNL1       -0.0202
     25 C          65.0680   91.3753   13.1509 C.ar    1  UNL1       -0.0011
     26 C          66.1830   92.3779   13.1906 C.ar    1  UNL1        0.0352
     27 C          66.7890   92.8767   11.9123 C.ar    1  UNL1        0.0221
     28 C          67.6845   91.9820   11.1077 C.ar    1  UNL1        0.0032
     29 C          68.2905   92.4807    9.8294 C.ar    1  UNL1        0.0207
     30 C          68.0010   93.8743    9.3557 C.ar    1  UNL1        0.0989
     31 N          67.1055   94.7690   10.1604 N.ar    1  UNL1       -0.2423
     32 C          66.4995   94.2702   11.4387 C.ar    1  UNL1        0.0989
     33 C          68.7291   93.9341   15.7303 C.3     1  UNL1        0.2525
     34 O          67.8069   93.8844   14.5483 O.3     1  UNL1       -0.4714
@<TRIPOS>BOND
     1    33    34    1
     2    34    21    1
     3    21    22   ar
     4    22    23   ar
     5    23    24   ar
     6    24    20    1
     7     1    20    1
     8     1     2    1
     9     2     3    1
    10     3     4    1
    11     4     5    1
    12     5     6    1
    13     6     7   am
    14     7     8    2
    15     7     9    1
    16     9    10   ar
    17    10    11   ar
    18    11    12   ar
    19    12    13   ar
    20    13    14   ar
    21    14    15    1
    22    15    16   ar
    23    16    17   ar
    24    17    18   ar
    25    18    19   ar
    26    24    25   ar
    27    25    26   ar
    28    26    27    1
    29    27    28   ar
    30    28    29   ar
    31    29    30   ar
    32    30    31   ar
    33    31    32   ar
    34    26    21   ar
    35    32    27   ar
    36     6     1    1
    37    14     9   ar
    38    19    15   ar
@<TRIPOS>MOLECULE
*****
 34 38 0 0 0
SMALL
GASTEIGER

@<TRIPOS>ATOM
      1 C          63.8691   88.1942   13.8658 C.3     1  UNL1        0.1096
      2 C          64.5526   87.4024   14.9410 C.3     1  UNL1        0.1622
      3 O          64.6335   85.9083   14.8355 O.3     1  UNL1       -0.3502
      4 C          64.0309   85.2060   13.6550 C.3     1  UNL1        0.1637
      5 C          63.3474   85.9977   12.5799 C.3     1  UNL1        0.1257
      6 N          63.2665   87.4919   12.6853 N.am    1  UNL1       -0.2723
      7 C          62.5829   88.2836   11.6102 C.2     1  UNL1        0.2506
      8 O          62.5020   89.7777   11.7156 O.2     1  UNL1       -0.2699
      9 C          61.9803   87.5813   10.4297 C.ar    1  UNL1        0.0729
     10 C          62.7858   86.5726    9.6657 C.ar    1  UNL1        0.0061
     11 C          62.1832   85.8703    8.4852 C.ar    1  UNL1        0.0002
     12 C          60.7751   86.1766    8.0687 C.ar    1  UNL1        0.0016
     13 C          59.9697   87.1853    8.8327 C.ar    1  UNL1        0.0211
     14 C          60.5723   87.8877   10.0132 C.ar    1  UNL1        0.1072
     15 N          59.7668   88.8964   10.7772 N.ar    1  UNL1       -0.1477
     16 N          58.9890   88.6353   12.0329 N.ar    1  UNL1       -0.1447
     17 C          58.3391   89.9209   12.4514 C.ar    1  UNL1        0.1446
     18 C          58.7154   90.9765   11.4543 C.ar    1  UNL1        0.1446
     19 N          59.5977   90.3433   10.4196 N.ar    1  UNL1       -0.1447
     20 C          63.7881   89.6883   13.9712 C.3     1  UNL1        0.0487
     21 C          67.5572   92.1452   14.0593 C.ar    1  UNL1        0.1387
     22 C          67.1252   91.3905   15.2814 C.ar    1  UNL1        0.0366
     23 C          65.8688   90.5715   15.2521 C.ar    1  UNL1       -0.0011
     24 C          65.0445   90.5072   14.0006 C.ar    1  UNL1       -0.0202
     25 C          65.4765   91.2620   12.7784 C.ar    1  UNL1       -0.0011
     26 C          66.7329   92.0809   12.8078 C.ar    1  UNL1        0.0352
     27 C          67.1649   92.8357   11.5855 C.ar    1  UNL1        0.0221
     28 C          68.0316   92.1682   10.5592 C.ar    1  UNL1        0.0032
     29 C          68.4636   92.9228    9.3370 C.ar    1  UNL1        0.0207
     30 C          68.0289   94.3451    9.1411 C.ar    1  UNL1        0.0989
     31 N          67.1622   95.0126   10.1673 N.ar    1  UNL1       -0.2423
     32 C          66.7301   94.2578   11.3896 C.ar    1  UNL1        0.0989
     33 C          69.3838   93.4161   15.4003 C.3     1  UNL1        0.2525
     34 O          68.8136   92.9641   14.0886 O.3     1  UNL1       -0.4714
@<TRIPOS>BOND
     1    33    34    1
     2    34    21    1
     3    21    22   ar
     4    22    23   ar
     5    23    24   ar
     6    24    20    1
     7     1    20    1
     8     1     2    1
     9     2     3    1
    10     3     4    1
    11     4     5    1
    12     5     6    1
    13     6     7   am
    14     7     8    2
    15     7     9    1
    16     9    10   ar
    17    10    11   ar
    18    11    12   ar
    19    12    13   ar
    20    13    14   ar
    21    14    15    1
    22    15    16   ar
    23    16    17   ar
    24    17    18   ar
    25    18    19   ar
    26    24    25   ar
    27    25    26   ar
    28    26    27    1
    29    27    28   ar
    30    28    29   ar
    31    29    30   ar
    32    30    31   ar
    33    31    32   ar
    34    26    21   ar
    35    32    27   ar
    36     6     1    1
    37    14     9   ar
    38    19    15   ar
