@<TRIPOS>MOLECULE
*****
 12 13 0 0 0
SMALL
GASTEIGER

@<TRIPOS>ATOM
      1 F          64.3816   90.8654   15.9240 F       1  UNL1       -0.1832
      2 C          65.0457   91.3448   14.6673 C.ar    1  UNL1        0.2223
      3 C          66.5314   91.5484   14.6349 C.ar    1  UNL1        0.0497
      4 C          67.1954   92.0278   13.3782 C.ar    1  UNL1        0.0055
      5 C          66.3737   92.3037   12.1540 C.ar    1  UNL1        0.0198
      6 C          64.8880   92.1001   12.1865 C.ar    1  UNL1        0.1013
      7 N          64.2240   91.6206   13.4432 N.ar    1  UNL1       -0.2165
      8 C          67.0378   92.7831   10.8973 C.ar    1  UNL1        0.0085
      9 C          68.0270   92.0129   10.0738 C.ar    1  UNL1        0.0075
     10 C          68.4298   92.8707    8.9110 C.ar    1  UNL1        0.0355
     11 S          67.6895   94.1711    9.0160 S.2     1  UNL1       -0.0859
     12 C          66.8292   94.1169   10.2436 C.ar    1  UNL1        0.0355
@<TRIPOS>BOND
     1     1     2    1
     2     2     3   ar
     3     3     4   ar
     4     4     5   ar
     5     5     8    1
     6     8     9   ar
     7     9    10   ar
     8    10    11   ar
     9    11    12   ar
    10     5     6   ar
    11     6     7   ar
    12     7     2   ar
    13    12     8   ar
@<TRIPOS>MOLECULE
*****
 12 13 0 0 0
SMALL
GASTEIGER

@<TRIPOS>ATOM
      1 F          69.5085   93.7930   16.2581 F       1  UNL1       -0.1832
      2 C          68.3701   93.1149   15.5551 C.ar    1  UNL1        0.2223
      3 C          67.0684   92.9009   16.2690 C.ar    1  UNL1        0.0497
      4 C          65.9301   92.2228   15.5660 C.ar    1  UNL1        0.0055
      5 C          66.0933   91.7587   14.1490 C.ar    1  UNL1        0.0198
      6 C          67.3950   91.9727   13.4351 C.ar    1  UNL1        0.1013
      7 N          68.5334   92.6508   14.1381 N.ar    1  UNL1       -0.2165
      8 C          64.9550   91.0805   13.4460 C.ar    1  UNL1        0.0085
      9 C          64.3016   89.7959   13.8618 C.ar    1  UNL1        0.0075
     10 C          63.2129   89.4894   12.8766 C.ar    1  UNL1        0.0355
     11 S          63.1934   90.5846   11.8518 S.2     1  UNL1       -0.0859
     12 C          64.2700   91.5679   12.2037 C.ar    1  UNL1        0.0355
@<TRIPOS>BOND
     1     1     2    1
     2     2     3   ar
     3     3     4   ar
     4     4     5   ar
     5     5     8    1
     6     8     9   ar
     7     9    10   ar
     8    10    11   ar
     9    11    12   ar
    10     5     6   ar
    11     6     7   ar
    12     7     2   ar
    13    12     8   ar
@<TRIPOS>MOLECULE
*****
 12 13 0 0 0
SMALL
GASTEIGER

@<TRIPOS>ATOM
      1 F          62.6912   85.8503   17.6729 F       1  UNL1       -0.1832
      2 C          63.1574   86.9657   16.7850 C.ar    1  UNL1        0.2223
      3 C          62.9106   88.3916   17.1797 C.ar    1  UNL1        0.0497
      4 C          63.3767   89.5071   16.2918 C.ar    1  UNL1        0.0055
      5 C          64.0897   89.1967   15.0091 C.ar    1  UNL1        0.0198
      6 C          64.3366   87.7708   14.6144 C.ar    1  UNL1        0.1013
      7 N          63.8704   86.6553   15.5024 N.ar    1  UNL1       -0.2165
      8 C          64.5559   90.3121   14.1212 C.ar    1  UNL1        0.0085
      9 C          65.7580   91.1792   14.3520 C.ar    1  UNL1        0.0075
     10 C          65.8469   92.1593   13.2200 C.ar    1  UNL1        0.0355
     11 S          64.6997   91.8980   12.2895 S.2     1  UNL1       -0.0859
     12 C          63.9019   90.7564   12.8465 C.ar    1  UNL1        0.0355
@<TRIPOS>BOND
     1     1     2    1
     2     2     3   ar
     3     3     4   ar
     4     4     5   ar
     5     5     8    1
     6     8     9   ar
     7     9    10   ar
     8    10    11   ar
     9    11    12   ar
    10     5     6   ar
    11     6     7   ar
    12     7     2   ar
    13    12     8   ar
@<TRIPOS>MOLECULE
*****
 12 13 0 0 0
SMALL
GASTEIGER

@<TRIPOS>ATOM
      1 F          64.8671   82.1787   12.1383 F       1  UNL1       -0.1832
      2 C          64.0268   83.2551   11.5175 C.ar    1  UNL1        0.2223
      3 C          64.0315   83.4458   10.0297 C.ar    1  UNL1        0.0497
      4 C          63.1912   84.5221    9.4089 C.ar    1  UNL1        0.0055
      5 C          62.3462   85.4077   10.2759 C.ar    1  UNL1        0.0198
      6 C          62.3415   85.2170   11.7636 C.ar    1  UNL1        0.1013
      7 N          63.1818   84.1406   12.3844 N.ar    1  UNL1       -0.2165
      8 C          61.5059   86.4840    9.6550 C.ar    1  UNL1        0.0085
      9 C          60.4770   86.2900    8.5809 C.ar    1  UNL1        0.0075
     10 C          59.8822   87.6294    8.2613 C.ar    1  UNL1        0.0355
     11 S          60.5434   88.6513    9.1380 S.2     1  UNL1       -0.0859
     12 C          61.5469   87.9434    9.9993 C.ar    1  UNL1        0.0355
@<TRIPOS>BOND
     1     1     2    1
     2     2     3   ar
     3     3     4   ar
     4     4     5   ar
     5     5     8    1
     6     8     9   ar
     7     9    10   ar
     8    10    11   ar
     9    11    12   ar
    10     5     6   ar
    11     6     7   ar
    12     7     2   ar
    13    12     8   ar
@<TRIPOS>MOLECULE
*****
 12 13 0 0 0
SMALL
GASTEIGER

@<TRIPOS>ATOM
      1 F          61.4940   83.7870    5.7823 F       1  UNL1       -0.1832
      2 C          61.4353   84.8273    6.8614 C.ar    1  UNL1        0.2223
      3 C          62.6503   85.1150    7.6927 C.ar    1  UNL1        0.0497
      4 C          62.5916   86.1553    8.7717 C.ar    1  UNL1        0.0055
      5 C          61.3180   86.9079    9.0195 C.ar    1  UNL1        0.0198
      6 C          60.1030   86.6202    8.1882 C.ar    1  UNL1        0.1013
      7 N          60.1617   85.5799    7.1092 N.ar    1  UNL1       -0.2165
      8 C          61.2593   87.9482   10.0985 C.ar    1  UNL1        0.0085
      9 C          62.4367   88.5627   10.7958 C.ar    1  UNL1        0.0075
     10 C          61.9180   89.5510   11.7980 C.ar    1  UNL1        0.0355
     11 S          60.4200   89.5473   11.7201 S.2     1  UNL1       -0.0859
     12 C          60.0130   88.5567   10.6698 C.ar    1  UNL1        0.0355
@<TRIPOS>BOND
     1     1     2    1
     2     2     3   ar
     3     3     4   ar
     4     4     5   ar
     5     5     8    1
     6     8     9   ar
     7     9    10   ar
     8    10    11   ar
     9    11    12   ar
    10     5     6   ar
    11     6     7   ar
    12     7     2   ar
    13    12     8   ar
@<TRIPOS>MOLECULE
*****
 12 13 0 0 0
SMALL
GASTEIGER

@<TRIPOS>ATOM
      1 F          62.4988   90.1058   14.0229 F       1  UNL1       -0.1832
      2 C          63.4627   90.8639   13.1590 C.ar    1  UNL1        0.2223
      3 C          63.2644   90.9065   11.6729 C.ar    1  UNL1        0.0497
      4 C          64.2283   91.6646   10.8090 C.ar    1  UNL1        0.0055
      5 C          65.3905   92.3801   11.4314 C.ar    1  UNL1        0.0198
      6 C          65.5888   92.3375   12.9176 C.ar    1  UNL1        0.1013
      7 N          64.6249   91.5794   13.7814 N.ar    1  UNL1       -0.2165
      8 C          66.3544   93.1382   10.5675 C.ar    1  UNL1        0.0085
      9 C          67.5850   92.5780    9.9180 C.ar    1  UNL1        0.0075
     10 C          68.2480   93.6832    9.1506 C.ar    1  UNL1        0.0355
     11 S          67.4272   94.9264    9.3258 S.2     1  UNL1       -0.0859
     12 C          66.2569   94.5895   10.2015 C.ar    1  UNL1        0.0355
@<TRIPOS>BOND
     1     1     2    1
     2     2     3   ar
     3     3     4   ar
     4     4     5   ar
     5     5     8    1
     6     8     9   ar
     7     9    10   ar
     8    10    11   ar
     9    11    12   ar
    10     5     6   ar
    11     6     7   ar
    12     7     2   ar
    13    12     8   ar
@<TRIPOS>MOLECULE
*****
 12 13 0 0 0
SMALL
GASTEIGER

@<TRIPOS>ATOM
      1 F          63.1697   87.6450   17.7044 F       1  UNL1       -0.1832
      2 C          63.1675   86.5743   16.6538 C.ar    1  UNL1        0.2223
      3 C          64.1595   86.6244   15.5298 C.ar    1  UNL1        0.0497
      4 C          64.1573   85.5538   14.4793 C.ar    1  UNL1        0.0055
      5 C          63.1631   84.4330   14.5527 C.ar    1  UNL1        0.0198
      6 C          62.1711   84.3829   15.6767 C.ar    1  UNL1        0.1013
      7 N          62.1733   85.4536   16.7272 N.ar    1  UNL1       -0.2165
      8 C          63.1609   83.3624   13.5021 C.ar    1  UNL1        0.0085
      9 C          63.5273   83.5426   12.0587 C.ar    1  UNL1        0.0075
     10 C          63.3848   82.2151   11.3750 C.ar    1  UNL1        0.0355
     11 S          62.9303   81.2144   12.3958 S.2     1  UNL1       -0.0859
     12 C          62.7920   81.9235   13.7104 C.ar    1  UNL1        0.0355
@<TRIPOS>BOND
     1     1     2    1
     2     2     3   ar
     3     3     4   ar
     4     4     5   ar
     5     5     8    1
     6     8     9   ar
     7     9    10   ar
     8    10    11   ar
     9    11    12   ar
    10     5     6   ar
    11     6     7   ar
    12     7     2   ar
    13    12     8   ar
@<TRIPOS>MOLECULE
*****
 12 13 0 0 0
SMALL
GASTEIGER

@<TRIPOS>ATOM
      1 F          64.6328   88.3775   14.6768 F       1  UNL1       -0.1832
      2 C          64.2124   86.9680   14.3828 C.ar    1  UNL1        0.2223
      3 C          64.5525   85.8679   15.3440 C.ar    1  UNL1        0.0497
      4 C          64.1320   84.4584   15.0500 C.ar    1  UNL1        0.0055
      5 C          63.3715   84.1489   13.7947 C.ar    1  UNL1        0.0198
      6 C          63.0314   85.2490   12.8334 C.ar    1  UNL1        0.1013
      7 N          63.4519   86.6585   13.1275 N.ar    1  UNL1       -0.2165
      8 C          62.9511   82.7394   13.5007 C.ar    1  UNL1        0.0085
      9 C          63.3986   81.9112   12.3328 C.ar    1  UNL1        0.0075
     10 C          62.7334   80.5705   12.4333 C.ar    1  UNL1        0.0355
     11 S          61.8747   80.5701   13.6632 S.2     1  UNL1       -0.0859
     12 C          62.0093   81.9105   14.3229 C.ar    1  UNL1        0.0355
@<TRIPOS>BOND
     1     1     2    1
     2     2     3   ar
     3     3     4   ar
     4     4     5   ar
     5     5     8    1
     6     8     9   ar
     7     9    10   ar
     8    10    11   ar
     9    11    12   ar
    10     5     6   ar
    11     6     7   ar
    12     7     2   ar
    13    12     8   ar
@<TRIPOS>MOLECULE
*****
 12 13 0 0 0
SMALL
GASTEIGER

@<TRIPOS>ATOM
      1 F          59.3485   85.7727    7.4533 F       1  UNL1       -0.1832
      2 C          60.1525   86.7272    8.2855 C.ar    1  UNL1        0.2223
      3 C          61.3161   86.2258    9.0883 C.ar    1  UNL1        0.0497
      4 C          62.1201   87.1802    9.9205 C.ar    1  UNL1        0.0055
      5 C          61.7605   88.6362    9.9498 C.ar    1  UNL1        0.0198
      6 C          60.5969   89.1376    9.1470 C.ar    1  UNL1        0.1013
      7 N          59.7929   88.1831    8.3148 N.ar    1  UNL1       -0.2165
      8 C          62.5645   89.5907   10.7820 C.ar    1  UNL1        0.0085
      9 C          63.1183   90.9078   10.3255 C.ar    1  UNL1        0.0075
     10 C          63.8520   91.5268   11.4782 C.ar    1  UNL1        0.0355
     11 S          63.7516   90.5922   12.6471 S.2     1  UNL1       -0.0859
     12 C          62.9559   89.3956   12.2168 C.ar    1  UNL1        0.0355
@<TRIPOS>BOND
     1     1     2    1
     2     2     3   ar
     3     3     4   ar
     4     4     5   ar
     5     5     8    1
     6     8     9   ar
     7     9    10   ar
     8    10    11   ar
     9    11    12   ar
    10     5     6   ar
    11     6     7   ar
    12     7     2   ar
    13    12     8   ar
