@<TRIPOS>MOLECULE
*****
 34 36 0 0 0
SMALL
GASTEIGER

@<TRIPOS>ATOM
      1 C          65.5098   92.9856   12.1936 C.ar    1  UNL1        0.0696
      2 C          66.2366   92.5057   13.4149 C.ar    1  UNL1        0.0057
      3 C          65.8059   91.2399   14.0949 C.ar    1  UNL1       -0.0041
      4 C          64.6485   90.4541   13.5537 C.ar    1  UNL1       -0.0185
      5 C          63.9218   90.9341   12.3325 C.ar    1  UNL1        0.0677
      6 C          64.3525   92.1998   11.6524 C.ar    1  UNL1        0.0095
      7 C          64.2179   89.1884   14.2338 C.3     1  UNL1        0.0257
      8 C          64.2618   87.8858   13.4914 C.3     1  UNL1        0.0259
      9 C          63.8311   86.6201   14.1714 C.3     1  UNL1        0.0940
     10 N          63.3566   86.6569   15.5939 N.am    1  UNL1       -0.2760
     11 C          62.9260   85.3912   16.2739 C.2     1  UNL1        0.2505
     12 O          62.4514   85.4281   17.6964 O.2     1  UNL1       -0.2699
     13 C          63.3127   87.9595   16.3363 C.3     1  UNL1        0.0940
     14 C          63.7434   89.2253   15.6562 C.3     1  UNL1        0.0259
     15 C          62.9698   84.0886   15.5315 C.ar    1  UNL1        0.0727
     16 C          61.7047   83.4899   14.9919 C.ar    1  UNL1        0.0077
     17 C          61.7486   82.1873   14.2495 C.ar    1  UNL1        0.0208
     18 C          63.0575   81.4833   14.0466 C.ar    1  UNL1        0.0989
     19 N          64.3226   82.0819   14.5862 N.ar    1  UNL1       -0.2422
     20 C          64.2787   83.3846   15.3287 C.ar    1  UNL1        0.1034
     21 N          66.1646   94.2671   10.0306 N.am    1  UNL1       -0.1708
     22 C          65.9405   94.2513   11.5136 C.2     1  UNL1        0.3078
     23 O          66.1470   95.5013   12.3166 O.2     1  UNL1       -0.2516
     24 H          66.0291   93.4467    9.5035 H       1  UNL1        0.2545
     25 N          67.8525   95.5545    8.5328 N.pl3   1  UNL1       -0.1313
     26 C          66.5953   95.5328    9.3505 C.2     1  UNL1        0.3751
     27 N          65.7686   96.7769    9.4882 N.pl3   1  UNL1       -0.2906
     28 H          68.1352   96.3853    8.0864 H       1  UNL1        0.3060
     29 H          66.0512   97.6077    9.0419 H       1  UNL1        0.2545
     30 H          64.9434   96.7627   10.0250 H       1  UNL1        0.2545
     31 C          62.7644   90.1482   11.7912 C.3     1  UNL1        0.4183
     32 F          61.6070   89.3625   11.2500 F       1  UNL1       -0.1659
     33 F          62.0326   90.3331   13.0875 F       1  UNL1       -0.1659
     34 F          63.4961   89.9634   10.4950 F       1  UNL1       -0.1659
@<TRIPOS>BOND
     1    25    26    2
     2    26    27    1
     3    26    21    1
     4    21    22   am
     5    22    23    2
     6    22     1    1
     7     1     2   ar
     8     2     3   ar
     9     3     4   ar
    10     4     7    1
    11     7     8    1
    12     8     9    1
    13     9    10    1
    14    10    11   am
    15    11    12    2
    16    11    15    1
    17    15    16   ar
    18    16    17   ar
    19    17    18   ar
    20    18    19   ar
    21    19    20   ar
    22    10    13    1
    23    13    14    1
    24     4     5   ar
    25     5    31    1
    26    31    32    1
    27    31    33    1
    28    31    34    1
    29     5     6   ar
    30     6     1   ar
    31    14     7    1
    32    20    15   ar
    33    25    28    1
    34    27    29    1
    35    27    30    1
    36    21    24    1
@<TRIPOS>MOLECULE
*****
 34 36 0 0 0
SMALL
GASTEIGER

@<TRIPOS>ATOM
      1 C          59.4408   89.5067    7.1773 C.ar    1  UNL1        0.0696
      2 C          59.5124   88.0105    7.0999 C.ar    1  UNL1        0.0057
      3 C          60.2181   87.2368    8.1739 C.ar    1  UNL1       -0.0041
      4 C          60.8523   87.9594    9.3252 C.ar    1  UNL1       -0.0185
      5 C          60.7808   89.4557    9.4026 C.ar    1  UNL1        0.0677
      6 C          60.0750   90.2293    8.3286 C.ar    1  UNL1        0.0095
      7 C          61.5580   87.1858   10.3992 C.3     1  UNL1        0.0257
      8 C          61.3509   85.7048   10.5160 C.3     1  UNL1        0.0259
      9 C          62.0566   84.9311   11.5900 C.3     1  UNL1        0.0940
     10 N          62.9694   85.6385   12.5472 N.am    1  UNL1       -0.2760
     11 C          63.6752   84.8648   13.6211 C.2     1  UNL1        0.2505
     12 O          64.5880   85.5722   14.5783 O.2     1  UNL1       -0.2699
     13 C          63.1766   87.1195   12.4304 C.3     1  UNL1        0.0940
     14 C          62.4709   87.8931   11.3564 C.3     1  UNL1        0.0259
     15 C          63.4680   83.3838   13.7379 C.ar    1  UNL1        0.0727
     16 C          64.3172   82.4422   12.9364 C.ar    1  UNL1        0.0077
     17 C          64.1101   80.9612   13.0532 C.ar    1  UNL1        0.0208
     18 C          63.0538   80.4218   13.9714 C.ar    1  UNL1        0.0989
     19 N          62.2046   81.3633   14.7729 N.ar    1  UNL1       -0.2422
     20 C          62.4117   82.8444   14.6561 C.ar    1  UNL1        0.1034
     21 N          59.4926   91.2749    5.2744 N.am    1  UNL1       -0.1708
     22 C          58.7351   90.2804    6.1033 C.2     1  UNL1        0.3078
     23 O          57.2719   90.0595    5.8582 O.2     1  UNL1       -0.2516
     24 H          60.4530   91.4198    5.4353 H       1  UNL1        0.2545
     25 N          57.2971   91.9470    4.0588 N.pl3   1  UNL1       -0.1313
     26 C          58.7869   92.0485    4.2004 C.2     1  UNL1        0.3751
     27 N          59.5711   92.9237    3.2681 N.pl3   1  UNL1       -0.2906
     28 H          56.8339   92.4548    3.3539 H       1  UNL1        0.3060
     29 H          59.1079   93.4315    2.5632 H       1  UNL1        0.2545
     30 H          60.5489   92.9903    3.3611 H       1  UNL1        0.2545
     31 C          61.4150   90.1784   10.5539 C.3     1  UNL1        0.4183
     32 F          62.0492   90.9011   11.7052 F       1  UNL1       -0.1659
     33 F          60.1559   90.0119   11.3520 F       1  UNL1       -0.1659
     34 F          62.6740   90.3449    9.7558 F       1  UNL1       -0.1659
@<TRIPOS>BOND
     1    25    26    2
     2    26    27    1
     3    26    21    1
     4    21    22   am
     5    22    23    2
     6    22     1    1
     7     1     2   ar
     8     2     3   ar
     9     3     4   ar
    10     4     7    1
    11     7     8    1
    12     8     9    1
    13     9    10    1
    14    10    11   am
    15    11    12    2
    16    11    15    1
    17    15    16   ar
    18    16    17   ar
    19    17    18   ar
    20    18    19   ar
    21    19    20   ar
    22    10    13    1
    23    13    14    1
    24     4     5   ar
    25     5    31    1
    26    31    32    1
    27    31    33    1
    28    31    34    1
    29     5     6   ar
    30     6     1   ar
    31    14     7    1
    32    20    15   ar
    33    25    28    1
    34    27    29    1
    35    27    30    1
    36    21    24    1
@<TRIPOS>MOLECULE
*****
 34 36 0 0 0
SMALL
GASTEIGER

@<TRIPOS>ATOM
      1 C          60.4008   91.5925    4.2885 C.ar    1  UNL1        0.0696
      2 C          61.8236   91.2137    4.0016 C.ar    1  UNL1        0.0057
      3 C          62.5702   91.8901    2.8903 C.ar    1  UNL1       -0.0041
      4 C          61.8942   92.9452    2.0659 C.ar    1  UNL1       -0.0185
      5 C          60.4715   93.3239    2.3528 C.ar    1  UNL1        0.0677
      6 C          59.7248   92.6475    3.4641 C.ar    1  UNL1        0.0095
      7 C          62.6409   93.6215    0.9546 C.3     1  UNL1        0.0257
      8 C          62.2141   93.4173   -0.4688 C.3     1  UNL1        0.0259
      9 C          62.9608   94.0936   -1.5801 C.3     1  UNL1        0.0940
     10 N          64.1343   94.9742   -1.2680 N.am    1  UNL1       -0.2760
     11 C          64.8810   95.6505   -2.3793 C.2     1  UNL1        0.2505
     12 O          66.0545   96.5311   -2.0673 O.2     1  UNL1       -0.2699
     13 C          64.5611   95.1784    0.1554 C.3     1  UNL1        0.0940
     14 C          63.8144   94.5021    1.2667 C.3     1  UNL1        0.0259
     15 C          64.4542   95.4463   -3.8027 C.ar    1  UNL1        0.0727
     16 C          64.9080   94.2303   -4.5548 C.ar    1  UNL1        0.0077
     17 C          64.4812   94.0261   -5.9781 C.ar    1  UNL1        0.0208
     18 C          63.6006   95.0378   -6.6496 C.ar    1  UNL1        0.0989
     19 N          63.1467   96.2538   -5.8977 N.ar    1  UNL1       -0.2422
     20 C          63.5735   96.4580   -4.4742 C.ar    1  UNL1        0.1034
     21 N          60.3865   90.0353    6.3681 N.am    1  UNL1       -0.1708
     22 C          59.6541   90.9161    5.3998 C.2     1  UNL1        0.3078
     23 O          58.1751   91.1206    5.5428 O.2     1  UNL1       -0.2516
     24 H          61.3573   89.9010    6.2743 H       1  UNL1        0.2545
     25 N          58.5530   88.3748    7.1626 N.pl3   1  UNL1       -0.1313
     26 C          59.6398   89.3589    7.4794 C.2     1  UNL1        0.3751
     27 N          59.9799   89.6667    8.9076 N.pl3   1  UNL1       -0.2906
     28 H          58.0630   87.9309    7.8920 H       1  UNL1        0.3060
     29 H          59.4899   89.2228    9.6370 H       1  UNL1        0.2545
     30 H          60.6932   90.3126    9.1156 H       1  UNL1        0.2545
     31 C          59.7954   94.3790    1.5283 C.3     1  UNL1        0.4183
     32 F          59.1193   95.4341    0.7040 F       1  UNL1       -0.1659
     33 F          59.1442   93.3130    0.6980 F       1  UNL1       -0.1659
     34 F          60.4465   95.4450    2.3587 F       1  UNL1       -0.1659
@<TRIPOS>BOND
     1    25    26    2
     2    26    27    1
     3    26    21    1
     4    21    22   am
     5    22    23    2
     6    22     1    1
     7     1     2   ar
     8     2     3   ar
     9     3     4   ar
    10     4     7    1
    11     7     8    1
    12     8     9    1
    13     9    10    1
    14    10    11   am
    15    11    12    2
    16    11    15    1
    17    15    16   ar
    18    16    17   ar
    19    17    18   ar
    20    18    19   ar
    21    19    20   ar
    22    10    13    1
    23    13    14    1
    24     4     5   ar
    25     5    31    1
    26    31    32    1
    27    31    33    1
    28    31    34    1
    29     5     6   ar
    30     6     1   ar
    31    14     7    1
    32    20    15   ar
    33    25    28    1
    34    27    29    1
    35    27    30    1
    36    21    24    1
@<TRIPOS>MOLECULE
*****
 34 36 0 0 0
SMALL
GASTEIGER

@<TRIPOS>ATOM
      1 C          59.2886   89.1885    6.9309 C.ar    1  UNL1        0.0696
      2 C          59.3378   87.7373    6.5544 C.ar    1  UNL1        0.0057
      3 C          60.1287   86.7728    7.3875 C.ar    1  UNL1       -0.0041
      4 C          60.8704   87.2593    8.5971 C.ar    1  UNL1       -0.0185
      5 C          60.8212   88.7104    8.9736 C.ar    1  UNL1        0.0677
      6 C          60.0303   89.6750    8.1405 C.ar    1  UNL1        0.0095
      7 C          61.6614   86.2948    9.4302 C.3     1  UNL1        0.0257
      8 C          61.5477   86.3267   10.9255 C.3     1  UNL1        0.0259
      9 C          62.3386   85.3621   11.7586 C.3     1  UNL1        0.0940
     10 N          63.2432   84.3656   11.0964 N.am    1  UNL1       -0.2760
     11 C          64.0342   83.4011   11.9294 C.2     1  UNL1        0.2505
     12 O          64.9388   82.4046   11.2672 O.2     1  UNL1       -0.2699
     13 C          63.3570   84.3337    9.6010 C.3     1  UNL1        0.0940
     14 C          62.5660   85.2983    8.7680 C.3     1  UNL1        0.0259
     15 C          63.9205   83.4330   13.4248 C.ar    1  UNL1        0.0727
     16 C          64.8247   84.3213   14.2269 C.ar    1  UNL1        0.0077
     17 C          64.7110   84.3532   15.7222 C.ar    1  UNL1        0.0208
     18 C          63.6931   83.4968   16.4155 C.ar    1  UNL1        0.0989
     19 N          62.7889   82.6086   15.6134 N.ar    1  UNL1       -0.2422
     20 C          62.9026   82.5766   14.1180 C.ar    1  UNL1        0.1034
     21 N          59.2059   91.1481    5.2272 N.am    1  UNL1       -0.1708
     22 C          58.4976   90.1530    6.0978 C.2     1  UNL1        0.3078
     23 O          56.9985   90.1225    6.1354 O.2     1  UNL1       -0.2516
     24 H          60.1899   91.1682    5.2025 H       1  UNL1        0.2545
     25 N          57.0455   92.5369    4.8350 N.pl3   1  UNL1       -0.1313
     26 C          58.4150   92.1127    4.3941 C.2     1  UNL1        0.3751
     27 N          58.9936   92.6530    3.1200 N.pl3   1  UNL1       -0.2906
     28 H          56.5264   93.1700    4.2882 H       1  UNL1        0.3060
     29 H          58.4745   93.2861    2.5732 H       1  UNL1        0.2545
     30 H          59.8924   92.3746    2.8306 H       1  UNL1        0.2545
     31 C          61.5629   89.1971   10.1832 C.3     1  UNL1        0.4183
     32 F          62.3047   89.6837   11.3927 F       1  UNL1       -0.1659
     33 F          60.2662   89.3282   10.9256 F       1  UNL1       -0.1659
     34 F          62.8597   89.0660    9.4407 F       1  UNL1       -0.1659
@<TRIPOS>BOND
     1    25    26    2
     2    26    27    1
     3    26    21    1
     4    21    22   am
     5    22    23    2
     6    22     1    1
     7     1     2   ar
     8     2     3   ar
     9     3     4   ar
    10     4     7    1
    11     7     8    1
    12     8     9    1
    13     9    10    1
    14    10    11   am
    15    11    12    2
    16    11    15    1
    17    15    16   ar
    18    16    17   ar
    19    17    18   ar
    20    18    19   ar
    21    19    20   ar
    22    10    13    1
    23    13    14    1
    24     4     5   ar
    25     5    31    1
    26    31    32    1
    27    31    33    1
    28    31    34    1
    29     5     6   ar
    30     6     1   ar
    31    14     7    1
    32    20    15   ar
    33    25    28    1
    34    27    29    1
    35    27    30    1
    36    21    24    1
@<TRIPOS>MOLECULE
*****
 34 36 0 0 0
SMALL
GASTEIGER

@<TRIPOS>ATOM
      1 C          59.5215   89.5372    7.2182 C.ar    1  UNL1        0.0696
      2 C          59.7429   90.1450    8.5715 C.ar    1  UNL1        0.0057
      3 C          60.4336   89.3559    9.6441 C.ar    1  UNL1       -0.0041
      4 C          60.9029   87.9592    9.3633 C.ar    1  UNL1       -0.0185
      5 C          60.6814   87.3515    8.0100 C.ar    1  UNL1        0.0677
      6 C          59.9907   88.1405    6.9374 C.ar    1  UNL1        0.0095
      7 C          61.5936   87.1702   10.4359 C.3     1  UNL1        0.0257
      8 C          61.3494   85.6952   10.5570 C.3     1  UNL1        0.0259
      9 C          62.0401   84.9062   11.6296 C.3     1  UNL1        0.0940
     10 N          62.9750   85.5922   12.5810 N.am    1  UNL1       -0.2760
     11 C          63.6657   84.8032   13.6536 C.2     1  UNL1        0.2505
     12 O          64.6006   85.4892   14.6050 O.2     1  UNL1       -0.2699
     13 C          63.2192   87.0672   12.4599 C.3     1  UNL1        0.0940
     14 C          62.5285   87.8562   11.3873 C.3     1  UNL1        0.0259
     15 C          63.4215   83.3282   13.7747 C.ar    1  UNL1        0.0727
     16 C          64.2820   82.3608   13.0172 C.ar    1  UNL1        0.0077
     17 C          64.0378   80.8858   13.1383 C.ar    1  UNL1        0.0208
     18 C          62.9331   80.3781   14.0169 C.ar    1  UNL1        0.0989
     19 N          62.0726   81.3454   14.7744 N.ar    1  UNL1       -0.2422
     20 C          62.3168   82.8205   14.6533 C.ar    1  UNL1        0.1034
     21 N          59.6123   91.2889    5.3016 N.am    1  UNL1       -0.1708
     22 C          58.8308   90.3262    6.1456 C.2     1  UNL1        0.3078
     23 O          57.3585   90.1526    5.9171 O.2     1  UNL1       -0.2516
     24 H          60.5786   91.4029    5.4516 H       1  UNL1        0.2545
     25 N          59.7121   93.0022    3.3510 N.pl3   1  UNL1       -0.1313
     26 C          58.9216   92.0779    4.2290 C.2     1  UNL1        0.3751
     27 N          57.4404   91.9427    4.0345 N.pl3   1  UNL1       -0.2906
     28 H          59.2587   93.5200    2.6471 H       1  UNL1        0.3060
     29 H          56.9871   92.4605    3.3306 H       1  UNL1        0.2545
     30 H          56.9216   91.3360    4.6108 H       1  UNL1        0.2545
     31 C          61.1507   85.9547    7.7291 C.3     1  UNL1        0.4183
     32 F          61.6200   84.5580    7.4483 F       1  UNL1       -0.1659
     33 F          59.7329   85.5259    7.4924 F       1  UNL1       -0.1659
     34 F          62.5685   86.3834    7.9658 F       1  UNL1       -0.1659
@<TRIPOS>BOND
     1    25    26    2
     2    26    27    1
     3    26    21    1
     4    21    22   am
     5    22    23    2
     6    22     1    1
     7     1     2   ar
     8     2     3   ar
     9     3     4   ar
    10     4     7    1
    11     7     8    1
    12     8     9    1
    13     9    10    1
    14    10    11   am
    15    11    12    2
    16    11    15    1
    17    15    16   ar
    18    16    17   ar
    19    17    18   ar
    20    18    19   ar
    21    19    20   ar
    22    10    13    1
    23    13    14    1
    24     4     5   ar
    25     5    31    1
    26    31    32    1
    27    31    33    1
    28    31    34    1
    29     5     6   ar
    30     6     1   ar
    31    14     7    1
    32    20    15   ar
    33    25    28    1
    34    27    29    1
    35    27    30    1
    36    21    24    1
@<TRIPOS>MOLECULE
*****
 34 36 0 0 0
SMALL
GASTEIGER

@<TRIPOS>ATOM
      1 C          62.9810   81.6881   11.7759 C.ar    1  UNL1        0.0696
      2 C          63.1054   82.5921   10.5854 C.ar    1  UNL1        0.0057
      3 C          63.1813   84.0779   10.7766 C.ar    1  UNL1       -0.0041
      4 C          63.1328   84.6597   12.1583 C.ar    1  UNL1       -0.0185
      5 C          63.0084   83.7557   13.3487 C.ar    1  UNL1        0.0677
      6 C          62.9324   82.2699   13.1575 C.ar    1  UNL1        0.0095
      7 C          63.2087   86.1456   12.3495 C.3     1  UNL1        0.0257
      8 C          63.9771   86.7148   13.5051 C.3     1  UNL1        0.0259
      9 C          64.0530   88.2006   13.6963 C.3     1  UNL1        0.0940
     10 N          63.3605   89.1172   12.7319 N.am    1  UNL1       -0.2760
     11 C          63.4364   90.6030   12.9231 C.2     1  UNL1        0.2505
     12 O          62.7439   91.5197   11.9586 O.2     1  UNL1       -0.2699
     13 C          62.5921   88.5480   11.5762 C.3     1  UNL1        0.0940
     14 C          62.5162   87.0622   11.3850 C.3     1  UNL1        0.0259
     15 C          64.2048   91.1722   14.0787 C.ar    1  UNL1        0.0727
     16 C          65.5909   91.7057   13.8678 C.ar    1  UNL1        0.0077
     17 C          66.3593   92.2748   15.0235 C.ar    1  UNL1        0.0208
     18 C          65.7417   92.3107   16.3900 C.ar    1  UNL1        0.0989
     19 N          64.3558   91.7773   16.6008 N.ar    1  UNL1       -0.2422
     20 C          63.5873   91.2081   15.4452 C.ar    1  UNL1        0.1034
     21 N          63.2299   79.6003   10.2498 N.am    1  UNL1       -0.1708
     22 C          62.9051   80.2023   11.5847 C.2     1  UNL1        0.3078
     23 O          62.5043   79.3184   12.7284 O.2     1  UNL1       -0.2516
     24 H          63.4930   80.1804    9.4991 H       1  UNL1        0.2545
     25 N          64.2244   77.4020    9.2862 N.pl3   1  UNL1       -0.1313
     26 C          63.1540   78.1145   10.0586 C.2     1  UNL1        0.3751
     27 N          62.0077   77.3411   10.6398 N.pl3   1  UNL1       -0.2906
     28 H          64.1746   76.4268    9.1607 H       1  UNL1        0.3060
     29 H          61.9578   76.3659   10.5143 H       1  UNL1        0.2545
     30 H          61.3051   77.8087   11.1468 H       1  UNL1        0.2545
     31 C          62.9598   84.3376   14.7305 C.3     1  UNL1        0.4183
     32 F          62.9112   84.9194   16.1122 F       1  UNL1       -0.1659
     33 F          64.4390   84.1312   14.8694 F       1  UNL1       -0.1659
     34 F          61.4806   84.5440   14.5916 F       1  UNL1       -0.1659
@<TRIPOS>BOND
     1    25    26    2
     2    26    27    1
     3    26    21    1
     4    21    22   am
     5    22    23    2
     6    22     1    1
     7     1     2   ar
     8     2     3   ar
     9     3     4   ar
    10     4     7    1
    11     7     8    1
    12     8     9    1
    13     9    10    1
    14    10    11   am
    15    11    12    2
    16    11    15    1
    17    15    16   ar
    18    16    17   ar
    19    17    18   ar
    20    18    19   ar
    21    19    20   ar
    22    10    13    1
    23    13    14    1
    24     4     5   ar
    25     5    31    1
    26    31    32    1
    27    31    33    1
    28    31    34    1
    29     5     6   ar
    30     6     1   ar
    31    14     7    1
    32    20    15   ar
    33    25    28    1
    34    27    29    1
    35    27    30    1
    36    21    24    1
@<TRIPOS>MOLECULE
*****
 34 36 0 0 0
SMALL
GASTEIGER

@<TRIPOS>ATOM
      1 C          59.8627   91.5403    4.3148 C.ar    1  UNL1        0.0696
      2 C          58.9908   92.3231    3.3784 C.ar    1  UNL1        0.0057
      3 C          59.5896   92.9858    2.1733 C.ar    1  UNL1       -0.0041
      4 C          61.0604   92.8656    1.9046 C.ar    1  UNL1       -0.0185
      5 C          61.9324   92.0827    2.8409 C.ar    1  UNL1        0.0677
      6 C          61.3335   91.4201    4.0460 C.ar    1  UNL1        0.0095
      7 C          61.6592   93.5283    0.6995 C.3     1  UNL1        0.0257
      8 C          61.5881   92.8556   -0.6393 C.3     1  UNL1        0.0259
      9 C          62.1870   93.5182   -1.8444 C.3     1  UNL1        0.0940
     10 N          62.8569   94.8536   -1.7107 N.am    1  UNL1       -0.2760
     11 C          63.4558   95.5162   -2.9158 C.2     1  UNL1        0.2505
     12 O          64.1257   96.8516   -2.7821 O.2     1  UNL1       -0.2699
     13 C          62.9280   95.5263   -0.3719 C.3     1  UNL1        0.0940
     14 C          62.3292   94.8636    0.8332 C.3     1  UNL1        0.0259
     15 C          63.3847   94.8435   -4.2546 C.ar    1  UNL1        0.0727
     16 C          62.1737   95.0239   -5.1212 C.ar    1  UNL1        0.0077
     17 C          62.1025   94.3512   -6.4600 C.ar    1  UNL1        0.0208
     18 C          63.2424   93.4981   -6.9322 C.ar    1  UNL1        0.0989
     19 N          64.4533   93.3177   -6.0656 N.ar    1  UNL1       -0.2422
     20 C          64.5245   93.9904   -4.7268 C.ar    1  UNL1        0.1034
     21 N          60.0928   89.9453    6.3527 N.am    1  UNL1       -0.1708
     22 C          59.2639   90.8776    5.5199 C.2     1  UNL1        0.3078
     23 O          57.8361   91.1472    5.8922 O.2     1  UNL1       -0.2516
     24 H          61.0300   89.7684    6.1084 H       1  UNL1        0.2545
     25 N          58.4342   88.2348    7.3885 N.pl3   1  UNL1       -0.1313
     26 C          59.4940   89.2827    7.5578 C.2     1  UNL1        0.3751
     27 N          59.9551   89.6679    8.9323 N.pl3   1  UNL1       -0.2906
     28 H          58.0412   87.7999    8.1795 H       1  UNL1        0.3060
     29 H          59.5620   89.2330    9.7233 H       1  UNL1        0.2545
     30 H          60.6507   90.3557    9.0434 H       1  UNL1        0.2545
     31 C          63.4032   91.9625    2.5722 C.3     1  UNL1        0.4183
     32 F          64.8740   91.8423    2.3035 F       1  UNL1       -0.1659
     33 F          63.2143   90.5272    2.1798 F       1  UNL1       -0.1659
     34 F          63.5922   93.3978    2.9647 F       1  UNL1       -0.1659
@<TRIPOS>BOND
     1    25    26    2
     2    26    27    1
     3    26    21    1
     4    21    22   am
     5    22    23    2
     6    22     1    1
     7     1     2   ar
     8     2     3   ar
     9     3     4   ar
    10     4     7    1
    11     7     8    1
    12     8     9    1
    13     9    10    1
    14    10    11   am
    15    11    12    2
    16    11    15    1
    17    15    16   ar
    18    16    17   ar
    19    17    18   ar
    20    18    19   ar
    21    19    20   ar
    22    10    13    1
    23    13    14    1
    24     4     5   ar
    25     5    31    1
    26    31    32    1
    27    31    33    1
    28    31    34    1
    29     5     6   ar
    30     6     1   ar
    31    14     7    1
    32    20    15   ar
    33    25    28    1
    34    27    29    1
    35    27    30    1
    36    21    24    1
@<TRIPOS>MOLECULE
*****
 34 36 0 0 0
SMALL
GASTEIGER

@<TRIPOS>ATOM
      1 C          62.3670   82.8845   14.0341 C.ar    1  UNL1        0.0696
      2 C          62.6348   83.4934   12.6896 C.ar    1  UNL1        0.0057
      3 C          63.0782   84.9227   12.5885 C.ar    1  UNL1       -0.0041
      4 C          63.2539   85.7433   13.8318 C.ar    1  UNL1       -0.0185
      5 C          62.9861   85.1344   15.1762 C.ar    1  UNL1        0.0677
      6 C          62.5427   83.7050   15.2774 C.ar    1  UNL1        0.0095
      7 C          63.6973   87.1727   13.7306 C.3     1  UNL1        0.0257
      8 C          64.7399   87.7027   14.6698 C.3     1  UNL1        0.0259
      9 C          65.1833   89.1321   14.5686 C.3     1  UNL1        0.0940
     10 N          64.5841   90.0314   13.5284 N.am    1  UNL1       -0.2760
     11 C          65.0275   91.4608   13.4272 C.2     1  UNL1        0.2505
     12 O          64.4284   92.3601   12.3870 O.2     1  UNL1       -0.2699
     13 C          63.5415   89.5014   12.5892 C.3     1  UNL1        0.0940
     14 C          63.0981   88.0720   12.6904 C.3     1  UNL1        0.0259
     15 C          66.0701   91.9909   14.3664 C.ar    1  UNL1        0.0727
     16 C          67.5085   92.0346   13.9428 C.ar    1  UNL1        0.0077
     17 C          68.5510   92.5647   14.8820 C.ar    1  UNL1        0.0208
     18 C          68.1554   93.0511   16.2446 C.ar    1  UNL1        0.0989
     19 N          66.7171   93.0074   16.6682 N.ar    1  UNL1       -0.2422
     20 C          65.6744   92.4773   15.7290 C.ar    1  UNL1        0.1034
     21 N          60.4611   81.1219   14.1369 N.am    1  UNL1       -0.1708
     22 C          61.9236   81.4551   14.1352 C.2     1  UNL1        0.3078
     23 O          62.9427   80.3590   14.2346 O.2     1  UNL1       -0.2516
     24 H          59.7922   81.8413   14.0716 H       1  UNL1        0.2545
     25 N          58.6461   79.3672   14.7508 N.pl3   1  UNL1       -0.1313
     26 C          60.0177   79.6925   14.2380 C.2     1  UNL1        0.3751
     27 N          60.9459   78.5883   13.8264 N.pl3   1  UNL1       -0.2906
     28 H          58.3551   78.4290   14.8171 H       1  UNL1        0.3060
     29 H          60.6549   77.6502   13.8928 H       1  UNL1        0.2545
     30 H          61.8462   78.8019   13.4899 H       1  UNL1        0.2545
     31 C          63.1617   85.9550   16.4196 C.3     1  UNL1        0.4183
     32 F          63.3374   86.7754   17.6629 F       1  UNL1       -0.1659
     33 F          61.7009   86.2950   16.4016 F       1  UNL1       -0.1659
     34 F          64.6225   85.6149   16.4376 F       1  UNL1       -0.1659
@<TRIPOS>BOND
     1    25    26    2
     2    26    27    1
     3    26    21    1
     4    21    22   am
     5    22    23    2
     6    22     1    1
     7     1     2   ar
     8     2     3   ar
     9     3     4   ar
    10     4     7    1
    11     7     8    1
    12     8     9    1
    13     9    10    1
    14    10    11   am
    15    11    12    2
    16    11    15    1
    17    15    16   ar
    18    16    17   ar
    19    17    18   ar
    20    18    19   ar
    21    19    20   ar
    22    10    13    1
    23    13    14    1
    24     4     5   ar
    25     5    31    1
    26    31    32    1
    27    31    33    1
    28    31    34    1
    29     5     6   ar
    30     6     1   ar
    31    14     7    1
    32    20    15   ar
    33    25    28    1
    34    27    29    1
    35    27    30    1
    36    21    24    1
