@<TRIPOS>MOLECULE
*****
 41 45 0 0 0
SMALL
GASTEIGER

@<TRIPOS>ATOM
      1 N          63.6932   90.6738   12.3259 N.ar    1  UNL1       -0.2399
      2 C          64.0026   89.4084   13.0696 C.ar    1  UNL1        0.2819
      3 O          64.8077   89.4594   14.3342 O.2     1  UNL1       -0.2652
      4 C          63.5068   88.0921   12.5486 C.ar    1  UNL1        0.1349
      5 C          62.7017   88.0411   11.2840 C.ar    1  UNL1        0.0966
      6 C          62.3505   86.6077   11.0155 C.ar    1  UNL1        0.1156
      7 C          62.9386   85.7728   12.1142 C.ar    1  UNL1        0.1240
      8 N          63.6533   86.6902   13.0617 N.ar    1  UNL1       -0.3063
      9 N          62.3923   89.3065   10.5404 N.ar    1  UNL1       -0.2770
     10 C          61.5872   89.2556    9.2757 C.3     1  UNL1        0.1351
     11 C          62.8881   90.6229   11.0614 C.ar    1  UNL1        0.3343
     12 O          62.5788   91.8884   10.3177 O.2     1  UNL1       -0.2462
     13 N          62.8310   84.2822   12.2428 N.pl3   1  UNL1       -0.2926
     14 C          63.2081   83.4007   11.0891 C.3     1  UNL1        0.0922
     15 C          63.1004   81.9101   11.2178 C.3     1  UNL1        0.0229
     16 C          62.6158   81.3010   12.5000 C.3     1  UNL1        0.0190
     17 C          62.2387   82.1824   13.6536 C.3     1  UNL1        0.0709
     18 N          61.7541   81.5734   14.9359 N.3     1  UNL1       -0.3208
     19 C          62.3464   83.6731   13.5250 C.3     1  UNL1        0.1075
     20 H          61.5445   82.3134   15.6059 H       1  UNL1        0.1189
     21 H          62.4775   80.9640   15.3176 H       1  UNL1        0.1189
     22 C          61.5516   86.0986    9.8525 C.1     1  UNL1        0.1047
     23 N          60.7526   85.5896    8.6896 N.1     1  UNL1       -0.1907
     24 C          64.1890   91.9902   12.8469 C.3     1  UNL1        0.1826
     25 C          65.6574   92.2963   12.8353 C.2     1  UNL1        0.1961
     26 O          66.4836   92.0551   14.0638 O.2     1  UNL1       -0.2893
     27 C          66.5497   94.7450    9.8424 C.ar    1  UNL1        0.1388
     28 C          67.5841   93.9383    9.1150 C.ar    1  UNL1        0.0369
     29 C          67.9763   92.5844    9.6276 C.ar    1  UNL1        0.0032
     30 C          67.3342   92.0369   10.8677 C.ar    1  UNL1        0.0031
     31 C          66.2996   92.8436   11.5952 C.ar    1  UNL1        0.0397
     32 C          65.9074   94.1976   11.0825 C.ar    1  UNL1        0.0398
     33 C          67.0827   96.8543    8.4222 C.3     1  UNL1        0.2525
     34 O          66.1574   96.0990    9.3297 O.3     1  UNL1       -0.4714
     35 C          64.3857   86.2780   14.3041 C.3     1  UNL1        0.1341
     36 C          63.7734   86.5220   15.6515 C.ar    1  UNL1        0.0004
     37 C          63.3312   85.3635   16.4954 C.ar    1  UNL1       -0.0024
     38 C          62.7189   85.6075   17.8428 C.ar    1  UNL1       -0.0003
     39 C          62.5488   87.0103   18.3463 C.ar    1  UNL1       -0.0000
     40 C          62.9910   88.1688   17.5025 C.ar    1  UNL1       -0.0003
     41 C          63.6033   87.9248   16.1551 C.ar    1  UNL1       -0.0024
@<TRIPOS>BOND
     1    33    34    1
     2    34    27    1
     3    27    28   ar
     4    28    29   ar
     5    29    30   ar
     6    30    31   ar
     7    31    25    1
     8    25    26    2
     9    25    24    1
    10    24     1    1
    11     1     2   ar
    12     2     3    2
    13     2     4   ar
    14     4     5   ar
    15     5     6   ar
    16     6    22    1
    17    22    23    3
    18     6     7   ar
    19     7    13    1
    20    13    14    1
    21    14    15    1
    22    15    16    1
    23    16    17    1
    24    17    18    1
    25    17    19    1
    26     7     8   ar
    27     8    35    1
    28    35    36    1
    29    36    37   ar
    30    37    38   ar
    31    38    39   ar
    32    39    40   ar
    33    40    41   ar
    34     5     9   ar
    35     9    10    1
    36     9    11   ar
    37    11    12    2
    38    31    32   ar
    39    32    27   ar
    40    11     1   ar
    41     8     4   ar
    42    41    36   ar
    43    19    13    1
    44    18    20    1
    45    18    21    1
@<TRIPOS>MOLECULE
*****
 41 45 0 0 0
SMALL
GASTEIGER

@<TRIPOS>ATOM
      1 N          63.4627   90.6007   12.1001 N.ar    1  UNL1       -0.2399
      2 C          63.8299   89.3639   12.8653 C.ar    1  UNL1        0.2819
      3 O          64.6557   89.4713   14.1129 O.2     1  UNL1       -0.2652
      4 C          63.3711   88.0197   12.3830 C.ar    1  UNL1        0.1349
      5 C          62.5453   87.9122   11.1354 C.ar    1  UNL1        0.0966
      6 C          62.2398   86.4619   10.9052 C.ar    1  UNL1        0.1156
      7 C          62.8768   85.6729   12.0105 C.ar    1  UNL1        0.1240
      8 N          63.5760   86.6357   12.9238 N.ar    1  UNL1       -0.3063
      9 N          62.1781   89.1490   10.3702 N.ar    1  UNL1       -0.2770
     10 C          61.3523   89.0417    9.1226 C.3     1  UNL1        0.1351
     11 C          62.6369   90.4933   10.8526 C.ar    1  UNL1        0.3343
     12 O          62.2698   91.7301   10.0873 O.2     1  UNL1       -0.2462
     13 N          62.8239   84.1827   12.1738 N.pl3   1  UNL1       -0.2926
     14 C          63.2840   83.2894   11.0602 C.3     1  UNL1        0.0922
     15 C          63.2311   81.7992   11.2236 C.3     1  UNL1        0.0229
     16 C          62.7182   81.2024   12.5006 C.3     1  UNL1        0.0190
     17 C          62.2581   82.0958   13.6143 C.3     1  UNL1        0.0709
     18 N          61.7452   81.4991   14.8913 N.3     1  UNL1       -0.3208
     19 C          62.3110   83.5860   13.4508 C.3     1  UNL1        0.1075
     20 H          61.4783   82.2461   15.5325 H       1  UNL1        0.1189
     21 H          62.4760   80.9297   15.3181 H       1  UNL1        0.1189
     22 C          61.4380   85.8992    9.7691 C.1     1  UNL1        0.1047
     23 N          60.6362   85.3366    8.6331 N.1     1  UNL1       -0.1907
     24 C          63.9215   91.9449   12.5825 C.3     1  UNL1        0.1826
     25 C          65.1598   92.5657   12.0071 C.2     1  UNL1        0.1961
     26 O          65.1040   93.2560   10.6765 O.2     1  UNL1       -0.2893
     27 C          67.8924   93.1447   14.8262 C.ar    1  UNL1        0.1388
     28 C          69.0425   92.3570   14.2722 C.ar    1  UNL1        0.0369
     29 C          68.8983   91.6389   12.9633 C.ar    1  UNL1        0.0032
     30 C          67.6042   91.7083   12.2081 C.ar    1  UNL1        0.0031
     31 C          66.4540   92.4961   12.7621 C.ar    1  UNL1        0.0397
     32 C          66.5982   93.2142   14.0711 C.ar    1  UNL1        0.0398
     33 C          69.2881   94.6340   16.4337 C.3     1  UNL1        0.2525
     34 O          68.0366   93.8628   16.1352 O.3     1  UNL1       -0.4714
     35 C          64.3451   86.2773   14.1608 C.3     1  UNL1        0.1341
     36 C          63.7505   86.5328   15.5140 C.ar    1  UNL1        0.0004
     37 C          63.6428   87.9360   16.0331 C.ar    1  UNL1       -0.0024
     38 C          63.0481   88.1915   17.3863 C.ar    1  UNL1       -0.0003
     39 C          62.5611   87.0438   18.2204 C.ar    1  UNL1       -0.0000
     40 C          62.6688   85.6407   17.7013 C.ar    1  UNL1       -0.0003
     41 C          63.2635   85.3851   16.3481 C.ar    1  UNL1       -0.0024
@<TRIPOS>BOND
     1    33    34    1
     2    34    27    1
     3    27    28   ar
     4    28    29   ar
     5    29    30   ar
     6    30    31   ar
     7    31    25    1
     8    25    26    2
     9    25    24    1
    10    24     1    1
    11     1     2   ar
    12     2     3    2
    13     2     4   ar
    14     4     5   ar
    15     5     6   ar
    16     6    22    1
    17    22    23    3
    18     6     7   ar
    19     7    13    1
    20    13    14    1
    21    14    15    1
    22    15    16    1
    23    16    17    1
    24    17    18    1
    25    17    19    1
    26     7     8   ar
    27     8    35    1
    28    35    36    1
    29    36    37   ar
    30    37    38   ar
    31    38    39   ar
    32    39    40   ar
    33    40    41   ar
    34     5     9   ar
    35     9    10    1
    36     9    11   ar
    37    11    12    2
    38    31    32   ar
    39    32    27   ar
    40    11     1   ar
    41     8     4   ar
    42    41    36   ar
    43    19    13    1
    44    18    20    1
    45    18    21    1
@<TRIPOS>MOLECULE
*****
 41 45 0 0 0
SMALL
GASTEIGER

@<TRIPOS>ATOM
      1 N          61.2175   89.5627   11.4668 N.ar    1  UNL1       -0.2399
      2 C          61.9433   89.6139   12.7785 C.ar    1  UNL1        0.2819
      3 O          61.4075   88.8640   13.9619 O.2     1  UNL1       -0.2652
      4 C          63.2049   90.4151   12.9068 C.ar    1  UNL1        0.1349
      5 C          63.7407   91.1651   11.7234 C.ar    1  UNL1        0.0966
      6 C          64.9975   91.8649   12.1484 C.ar    1  UNL1        0.1156
      7 C          65.2385   91.5475   13.5945 C.ar    1  UNL1        0.1240
      8 N          64.1306   90.6514   14.0632 N.ar    1  UNL1       -0.3063
      9 N          63.0149   91.1139   10.4117 N.ar    1  UNL1       -0.2770
     10 C          63.5507   91.8639    9.2282 C.3     1  UNL1        0.1351
     11 C          61.7533   90.3127   10.2835 C.ar    1  UNL1        0.3343
     12 O          61.0274   90.2615    8.9717 O.2     1  UNL1       -0.2462
     13 N          66.3859   92.0396   14.4259 N.pl3   1  UNL1       -0.2926
     14 C          66.1384   92.5686   15.8075 C.3     1  UNL1        0.0922
     15 C          67.2859   93.0607   16.6389 C.3     1  UNL1        0.0229
     16 C          68.6808   93.0238   16.0887 C.3     1  UNL1        0.0190
     17 C          68.9283   92.4948   14.7071 C.3     1  UNL1        0.0709
     18 N          70.3232   92.4579   14.1568 N.3     1  UNL1       -0.3208
     19 C          67.7808   92.0027   13.8757 C.3     1  UNL1        0.1075
     20 H          70.3063   92.0715   13.2130 H       1  UNL1        0.1189
     21 H          70.9086   91.8730   14.7531 H       1  UNL1        0.1189
     22 C          65.8617   92.7303   11.2798 C.1     1  UNL1        0.1047
     23 N          66.7258   93.5956   10.4112 N.1     1  UNL1       -0.1907
     24 C          59.9559   88.7615   11.3386 C.3     1  UNL1        0.1826
     25 C          59.8603   87.6724   10.3116 C.2     1  UNL1        0.1961
     26 O          58.6521   87.5789    9.4275 O.2     1  UNL1       -0.2893
     27 C          62.5476   84.8961   11.2178 C.ar    1  UNL1        0.1388
     28 C          63.1983   84.6851    9.8829 C.ar    1  UNL1        0.0369
     29 C          62.7364   85.4698    8.6910 C.ar    1  UNL1        0.0032
     30 C          61.6238   86.4656    8.8337 C.ar    1  UNL1        0.0031
     31 C          60.9730   86.6766   10.1687 C.ar    1  UNL1        0.0397
     32 C          61.4349   85.8919   11.3607 C.ar    1  UNL1        0.0398
     33 C          64.2756   83.3105   12.3357 C.3     1  UNL1        0.2525
     34 O          63.0095   84.1114   12.4098 O.3     1  UNL1       -0.4714
     35 C          63.9756   90.0903   15.4456 C.3     1  UNL1        0.1341
     36 C          63.8792   88.6069   15.6464 C.ar    1  UNL1        0.0004
     37 C          64.5213   87.6737   14.6632 C.ar    1  UNL1       -0.0024
     38 C          64.4250   86.1903   14.8640 C.ar    1  UNL1       -0.0003
     39 C          63.6864   85.6401   16.0481 C.ar    1  UNL1       -0.0000
     40 C          63.0444   86.5733   17.0313 C.ar    1  UNL1       -0.0003
     41 C          63.1407   88.0567   16.8305 C.ar    1  UNL1       -0.0024
@<TRIPOS>BOND
     1    33    34    1
     2    34    27    1
     3    27    28   ar
     4    28    29   ar
     5    29    30   ar
     6    30    31   ar
     7    31    25    1
     8    25    26    2
     9    25    24    1
    10    24     1    1
    11     1     2   ar
    12     2     3    2
    13     2     4   ar
    14     4     5   ar
    15     5     6   ar
    16     6    22    1
    17    22    23    3
    18     6     7   ar
    19     7    13    1
    20    13    14    1
    21    14    15    1
    22    15    16    1
    23    16    17    1
    24    17    18    1
    25    17    19    1
    26     7     8   ar
    27     8    35    1
    28    35    36    1
    29    36    37   ar
    30    37    38   ar
    31    38    39   ar
    32    39    40   ar
    33    40    41   ar
    34     5     9   ar
    35     9    10    1
    36     9    11   ar
    37    11    12    2
    38    31    32   ar
    39    32    27   ar
    40    11     1   ar
    41     8     4   ar
    42    41    36   ar
    43    19    13    1
    44    18    20    1
    45    18    21    1
@<TRIPOS>MOLECULE
*****
 41 45 0 0 0
SMALL
GASTEIGER

@<TRIPOS>ATOM
      1 N          61.2015   89.6103   11.5023 N.ar    1  UNL1       -0.2399
      2 C          61.9390   89.6628   12.8074 C.ar    1  UNL1        0.2819
      3 O          61.4042   88.9284   14.0011 O.2     1  UNL1       -0.2652
      4 C          63.2111   90.4496   12.9189 C.ar    1  UNL1        0.1349
      5 C          63.7459   91.1840   11.7253 C.ar    1  UNL1        0.0966
      6 C          65.0146   91.8718   12.1343 C.ar    1  UNL1        0.1156
      7 C          65.2639   91.5625   13.5807 C.ar    1  UNL1        0.1240
      8 N          64.1494   90.6835   14.0657 N.ar    1  UNL1       -0.3063
      9 N          63.0085   91.1315   10.4202 N.ar    1  UNL1       -0.2770
     10 C          63.5432   91.8658    9.2264 C.3     1  UNL1        0.1351
     11 C          61.7362   90.3446   10.3087 C.ar    1  UNL1        0.3343
     12 O          60.9988   90.2921    9.0035 O.2     1  UNL1       -0.2462
     13 N          66.4242   92.0471   14.3986 N.pl3   1  UNL1       -0.2926
     14 C          66.1931   92.6033   15.7724 C.3     1  UNL1        0.0922
     15 C          67.3534   93.0879   16.5902 C.3     1  UNL1        0.0229
     16 C          68.7448   93.0162   16.0344 C.3     1  UNL1        0.0190
     17 C          68.9759   92.4600   14.6607 C.3     1  UNL1        0.0709
     18 N          70.3672   92.3883   14.1048 N.3     1  UNL1       -0.3208
     19 C          67.8156   91.9754   13.8428 C.3     1  UNL1        0.1075
     20 H          70.3386   91.9868   13.1676 H       1  UNL1        0.1189
     21 H          70.9446   91.8026   14.7081 H       1  UNL1        0.1189
     22 C          65.8817   92.7199   11.2518 C.1     1  UNL1        0.1047
     23 N          66.7488   93.5681   10.3693 N.1     1  UNL1       -0.1907
     24 C          59.9293   88.8234   11.3908 C.3     1  UNL1        0.1826
     25 C          59.8128   87.7261   10.3748 C.2     1  UNL1        0.1961
     26 O          58.6037   87.6480    9.4904 O.2     1  UNL1       -0.2893
     27 C          62.4928   85.2899    8.7523 C.ar    1  UNL1        0.1388
     28 C          63.0905   84.6683    9.9796 C.ar    1  UNL1        0.0369
     29 C          62.5957   85.0659   11.3386 C.ar    1  UNL1        0.0032
     30 C          61.5031   86.0852   11.4704 C.ar    1  UNL1        0.0031
     31 C          60.9054   86.7068   10.2431 C.ar    1  UNL1        0.0397
     32 C          61.4002   86.3092    8.8840 C.ar    1  UNL1        0.0398
     33 C          62.0089   84.5561    6.3074 C.3     1  UNL1        0.2525
     34 O          62.9877   84.8922    7.3933 O.3     1  UNL1       -0.4714
     35 C          63.9994   90.1349   15.4536 C.3     1  UNL1        0.1341
     36 C          63.8852   88.6545   15.6666 C.ar    1  UNL1        0.0004
     37 C          63.1482   88.1231   16.8601 C.ar    1  UNL1       -0.0024
     38 C          63.0340   86.6427   17.0731 C.ar    1  UNL1       -0.0003
     39 C          63.6570   85.6936   16.0926 C.ar    1  UNL1       -0.0000
     40 C          64.3939   86.2250   14.8992 C.ar    1  UNL1       -0.0003
     41 C          64.5081   87.7054   14.6861 C.ar    1  UNL1       -0.0024
@<TRIPOS>BOND
     1    33    34    1
     2    34    27    1
     3    27    28   ar
     4    28    29   ar
     5    29    30   ar
     6    30    31   ar
     7    31    25    1
     8    25    26    2
     9    25    24    1
    10    24     1    1
    11     1     2   ar
    12     2     3    2
    13     2     4   ar
    14     4     5   ar
    15     5     6   ar
    16     6    22    1
    17    22    23    3
    18     6     7   ar
    19     7    13    1
    20    13    14    1
    21    14    15    1
    22    15    16    1
    23    16    17    1
    24    17    18    1
    25    17    19    1
    26     7     8   ar
    27     8    35    1
    28    35    36    1
    29    36    37   ar
    30    37    38   ar
    31    38    39   ar
    32    39    40   ar
    33    40    41   ar
    34     5     9   ar
    35     9    10    1
    36     9    11   ar
    37    11    12    2
    38    31    32   ar
    39    32    27   ar
    40    11     1   ar
    41     8     4   ar
    42    41    36   ar
    43    19    13    1
    44    18    20    1
    45    18    21    1
@<TRIPOS>MOLECULE
*****
 41 45 0 0 0
SMALL
GASTEIGER

@<TRIPOS>ATOM
      1 N          61.9914   88.0149   11.2004 N.ar    1  UNL1       -0.2399
      2 C          62.9419   88.0210   12.3608 C.ar    1  UNL1        0.2819
      3 O          63.0399   86.8217   13.2563 O.2     1  UNL1       -0.2652
      4 C          63.7945   89.2264   12.6255 C.ar    1  UNL1        0.1349
      5 C          63.6965   90.4257   11.7300 C.ar    1  UNL1        0.0966
      6 C          64.6563   91.4616   12.2357 C.ar    1  UNL1        0.1156
      7 C          65.3475   90.9025   13.4439 C.ar    1  UNL1        0.1240
      8 N          64.8148   89.5210   13.6848 N.ar    1  UNL1       -0.3063
      9 N          62.7460   90.4197   10.5696 N.ar    1  UNL1       -0.2770
     10 C          62.6479   91.6190    9.6740 C.3     1  UNL1        0.1351
     11 C          61.8934   89.2142   10.3049 C.ar    1  UNL1        0.3343
     12 O          60.9428   89.2081    9.1445 O.2     1  UNL1       -0.2462
     13 N          66.3885   91.6019   14.2667 N.pl3   1  UNL1       -0.2926
     14 C          66.0117   92.2329   15.5743 C.3     1  UNL1        0.0922
     15 C          67.0529   92.9324   16.3970 C.3     1  UNL1        0.0229
     16 C          68.4707   93.0008   15.9122 C.3     1  UNL1        0.0190
     17 C          68.8475   92.3698   14.6046 C.3     1  UNL1        0.0709
     18 N          70.2653   92.4382   14.1198 N.3     1  UNL1       -0.3208
     19 C          67.8063   91.6703   13.7819 C.3     1  UNL1        0.1075
     20 H          70.3407   91.9612   13.2213 H       1  UNL1        0.1189
     21 H          70.8786   91.9856   14.7975 H       1  UNL1        0.1189
     22 C          64.8848   92.8184   11.6382 C.1     1  UNL1        0.1047
     23 N          65.1133   94.1751   11.0407 N.1     1  UNL1       -0.1907
     24 C          61.1388   86.8094   10.9357 C.3     1  UNL1        0.1826
     25 C          61.6250   85.7363   10.0073 C.2     1  UNL1        0.1961
     26 O          61.2610   85.7812    8.5528 O.2     1  UNL1       -0.2893
     27 C          63.1270   83.0020   12.4604 C.ar    1  UNL1        0.1388
     28 C          64.1758   82.3819   11.5856 C.ar    1  UNL1        0.0369
     29 C          64.3744   82.8798   10.1848 C.ar    1  UNL1        0.0032
     30 C          63.5242   83.9979    9.6585 C.ar    1  UNL1        0.0031
     31 C          62.4753   84.6181   10.5334 C.ar    1  UNL1        0.0397
     32 C          62.2767   84.1201   11.9343 C.ar    1  UNL1        0.0398
     33 C          62.1468   81.2475   14.1070 C.3     1  UNL1        0.2525
     34 O          62.9284   82.5040   13.8614 O.3     1  UNL1       -0.4714
     35 C          65.2298   88.5966   14.7908 C.3     1  UNL1        0.1341
     36 C          64.1895   87.9362   15.6462 C.ar    1  UNL1        0.0004
     37 C          63.1883   88.7710   16.3883 C.ar    1  UNL1       -0.0024
     38 C          62.1480   88.1106   17.2436 C.ar    1  UNL1       -0.0003
     39 C          62.1089   86.6153   17.3570 C.ar    1  UNL1       -0.0000
     40 C          63.1101   85.7806   16.6149 C.ar    1  UNL1       -0.0003
     41 C          64.1504   86.4409   15.7595 C.ar    1  UNL1       -0.0024
@<TRIPOS>BOND
     1    33    34    1
     2    34    27    1
     3    27    28   ar
     4    28    29   ar
     5    29    30   ar
     6    30    31   ar
     7    31    25    1
     8    25    26    2
     9    25    24    1
    10    24     1    1
    11     1     2   ar
    12     2     3    2
    13     2     4   ar
    14     4     5   ar
    15     5     6   ar
    16     6    22    1
    17    22    23    3
    18     6     7   ar
    19     7    13    1
    20    13    14    1
    21    14    15    1
    22    15    16    1
    23    16    17    1
    24    17    18    1
    25    17    19    1
    26     7     8   ar
    27     8    35    1
    28    35    36    1
    29    36    37   ar
    30    37    38   ar
    31    38    39   ar
    32    39    40   ar
    33    40    41   ar
    34     5     9   ar
    35     9    10    1
    36     9    11   ar
    37    11    12    2
    38    31    32   ar
    39    32    27   ar
    40    11     1   ar
    41     8     4   ar
    42    41    36   ar
    43    19    13    1
    44    18    20    1
    45    18    21    1
@<TRIPOS>MOLECULE
*****
 41 45 0 0 0
SMALL
GASTEIGER

@<TRIPOS>ATOM
      1 N          61.3369   89.9342   10.5798 N.ar    1  UNL1       -0.2399
      2 C          62.6919   90.5708   10.4866 C.ar    1  UNL1        0.2819
      3 O          63.2635   90.9249    9.1457 O.2     1  UNL1       -0.2652
      4 C          63.4753   90.8532   11.7341 C.ar    1  UNL1        0.1349
      5 C          62.9037   90.4990   13.0750 C.ar    1  UNL1        0.0966
      6 C          63.9012   90.8942   14.1232 C.ar    1  UNL1        0.1156
      7 C          65.0893   91.4926   13.4302 C.ar    1  UNL1        0.1240
      8 N          64.8261   91.4673   11.9537 N.ar    1  UNL1       -0.3063
      9 N          61.5487   89.8625   13.1682 N.ar    1  UNL1       -0.2770
     10 C          60.9770   89.5083   14.5091 C.3     1  UNL1        0.1351
     11 C          60.7653   89.5800   11.9205 C.ar    1  UNL1        0.3343
     12 O          59.4102   88.9434   12.0138 O.2     1  UNL1       -0.2462
     13 N          66.3239   92.0232   14.0967 N.pl3   1  UNL1       -0.2926
     14 C          66.2086   92.8301   15.3559 C.3     1  UNL1        0.0922
     15 C          67.4433   93.3606   16.0223 C.3     1  UNL1        0.0229
     16 C          68.7933   93.0844   15.4296 C.3     1  UNL1        0.0190
     17 C          68.9086   92.2775   14.1703 C.3     1  UNL1        0.0709
     18 N          70.2584   92.0013   13.5775 N.3     1  UNL1       -0.3208
     19 C          67.6739   91.7470   13.5039 C.3     1  UNL1        0.1075
     20 H          70.1500   91.4436   12.7303 H       1  UNL1        0.1189
     21 H          70.8273   91.4888   14.2514 H       1  UNL1        0.1189
     22 C          63.7391   90.7214   15.6044 C.1     1  UNL1        0.1047
     23 N          63.5769   90.5485   17.0855 N.1     1  UNL1       -0.1907
     24 C          60.5535   89.6517    9.3321 C.3     1  UNL1        0.1826
     25 C          60.2474   88.2358    8.9432 C.2     1  UNL1        0.1961
     26 O          59.0292   87.9297    8.1232 O.2     1  UNL1       -0.2893
     27 C          62.1097   85.5920   11.2437 C.ar    1  UNL1        0.1388
     28 C          62.9838   84.9057   10.2364 C.ar    1  UNL1        0.0369
     29 C          62.9459   85.3293    8.7980 C.ar    1  UNL1        0.0032
     30 C          62.0338   86.4393    8.3668 C.ar    1  UNL1        0.0031
     31 C          61.1596   87.1257    9.3743 C.ar    1  UNL1        0.0397
     32 C          61.1976   86.7020   10.8127 C.ar    1  UNL1        0.0398
     33 C          63.4653   84.9731   13.3720 C.3     1  UNL1        0.2525
     34 O          62.1477   85.1683   12.6822 O.3     1  UNL1       -0.4714
     35 C          65.7513   91.9680   10.8845 C.3     1  UNL1        0.1341
     36 C          66.0433   93.4350   10.7722 C.ar    1  UNL1        0.0004
     37 C          66.5350   94.0047    9.4746 C.ar    1  UNL1       -0.0024
     38 C          66.8271   95.4717    9.3622 C.ar    1  UNL1       -0.0003
     39 C          66.6274   96.3691   10.5476 C.ar    1  UNL1       -0.0000
     40 C          66.1358   95.7995   11.8451 C.ar    1  UNL1       -0.0003
     41 C          65.8437   94.3325   11.9575 C.ar    1  UNL1       -0.0024
@<TRIPOS>BOND
     1    33    34    1
     2    34    27    1
     3    27    28   ar
     4    28    29   ar
     5    29    30   ar
     6    30    31   ar
     7    31    25    1
     8    25    26    2
     9    25    24    1
    10    24     1    1
    11     1     2   ar
    12     2     3    2
    13     2     4   ar
    14     4     5   ar
    15     5     6   ar
    16     6    22    1
    17    22    23    3
    18     6     7   ar
    19     7    13    1
    20    13    14    1
    21    14    15    1
    22    15    16    1
    23    16    17    1
    24    17    18    1
    25    17    19    1
    26     7     8   ar
    27     8    35    1
    28    35    36    1
    29    36    37   ar
    30    37    38   ar
    31    38    39   ar
    32    39    40   ar
    33    40    41   ar
    34     5     9   ar
    35     9    10    1
    36     9    11   ar
    37    11    12    2
    38    31    32   ar
    39    32    27   ar
    40    11     1   ar
    41     8     4   ar
    42    41    36   ar
    43    19    13    1
    44    18    20    1
    45    18    21    1
@<TRIPOS>MOLECULE
*****
 41 45 0 0 0
SMALL
GASTEIGER

@<TRIPOS>ATOM
      1 N          63.1829   89.6095   15.3151 N.ar    1  UNL1       -0.2399
      2 C          63.3706   89.7632   13.8348 C.ar    1  UNL1        0.2819
      3 O          62.6577   88.8429   12.8889 O.2     1  UNL1       -0.2652
      4 C          64.2712   90.8373   13.3006 C.ar    1  UNL1        0.1349
      5 C          64.9840   91.7575   14.2466 C.ar    1  UNL1        0.0966
      6 C          65.8019   92.7161   13.4328 C.ar    1  UNL1        0.1156
      7 C          65.5945   92.3882   11.9839 C.ar    1  UNL1        0.1240
      8 N          64.6485   91.2270   11.9021 N.ar    1  UNL1       -0.3063
      9 N          64.7963   91.6038   15.7268 N.ar    1  UNL1       -0.2770
     10 C          65.5092   92.5241   16.6729 C.3     1  UNL1        0.1351
     11 C          63.8957   90.5297   16.2610 C.ar    1  UNL1        0.3343
     12 O          63.7079   90.3760   17.7414 O.2     1  UNL1       -0.2462
     13 N          66.2229   93.0971   10.8208 N.pl3   1  UNL1       -0.2926
     14 C          67.4160   92.5007   10.1347 C.3     1  UNL1        0.0922
     15 C          68.0443   93.2096    8.9716 C.3     1  UNL1        0.0229
     16 C          67.4795   94.5148    8.4946 C.3     1  UNL1        0.0190
     17 C          66.2864   95.1112    9.1808 C.3     1  UNL1        0.0709
     18 N          65.7216   96.4163    8.7039 N.3     1  UNL1       -0.3208
     19 C          65.6581   94.4022   10.3439 C.3     1  UNL1        0.1075
     20 H          64.9193   96.6705    9.2803 H       1  UNL1        0.1189
     21 H          65.4263   96.3242    7.7320 H       1  UNL1        0.1189
     22 C          66.6741   93.8104   13.9731 C.1     1  UNL1        0.1047
     23 N          67.5462   94.9047   14.5135 N.1     1  UNL1       -0.1907
     24 C          62.2822   88.5354   15.8493 C.3     1  UNL1        0.1826
     25 C          62.8631   87.3756   16.6025 C.2     1  UNL1        0.1961
     26 O          62.8372   87.3666   18.1023 O.2     1  UNL1       -0.2893
     27 C          63.4173   83.7271   15.1427 C.ar    1  UNL1        0.1388
     28 C          64.6836   83.9231   14.3629 C.ar    1  UNL1        0.0369
     29 C          65.3430   85.2699   14.3296 C.ar    1  UNL1        0.0032
     30 C          64.7363   86.4208   15.0761 C.ar    1  UNL1        0.0031
     31 C          63.4699   86.2248   15.8560 C.ar    1  UNL1        0.0397
     32 C          62.8105   84.8779   15.8893 C.ar    1  UNL1        0.0398
     33 C          62.0528   81.8600   13.9585 C.3     1  UNL1        0.2525
     34 O          62.7579   82.3802   15.1760 O.3     1  UNL1       -0.4714
     35 C          64.1647   90.5709   10.6430 C.3     1  UNL1        0.1341
     36 C          62.7309   90.1475   10.5211 C.ar    1  UNL1        0.0004
     37 C          61.6368   91.0606   10.9895 C.ar    1  UNL1       -0.0024
     38 C          60.2030   90.6373   10.8676 C.ar    1  UNL1       -0.0003
     39 C          59.8632   89.3008   10.2772 C.ar    1  UNL1       -0.0000
     40 C          60.9572   88.3877    9.8089 C.ar    1  UNL1       -0.0003
     41 C          62.3910   88.8110    9.9308 C.ar    1  UNL1       -0.0024
@<TRIPOS>BOND
     1    33    34    1
     2    34    27    1
     3    27    28   ar
     4    28    29   ar
     5    29    30   ar
     6    30    31   ar
     7    31    25    1
     8    25    26    2
     9    25    24    1
    10    24     1    1
    11     1     2   ar
    12     2     3    2
    13     2     4   ar
    14     4     5   ar
    15     5     6   ar
    16     6    22    1
    17    22    23    3
    18     6     7   ar
    19     7    13    1
    20    13    14    1
    21    14    15    1
    22    15    16    1
    23    16    17    1
    24    17    18    1
    25    17    19    1
    26     7     8   ar
    27     8    35    1
    28    35    36    1
    29    36    37   ar
    30    37    38   ar
    31    38    39   ar
    32    39    40   ar
    33    40    41   ar
    34     5     9   ar
    35     9    10    1
    36     9    11   ar
    37    11    12    2
    38    31    32   ar
    39    32    27   ar
    40    11     1   ar
    41     8     4   ar
    42    41    36   ar
    43    19    13    1
    44    18    20    1
    45    18    21    1
