@<TRIPOS>MOLECULE
*****
 31 34 0 0 0
SMALL
GASTEIGER

@<TRIPOS>ATOM
      1 O          63.5134   84.8610   16.8735 O.2     1  UNL1       -0.2865
      2 C          63.4965   85.4292   15.4854 C.ar    1  UNL1        0.1981
      3 C          63.8670   86.8648   15.2581 C.ar    1  UNL1        0.0633
      4 C          63.8501   87.4330   13.8699 C.ar    1  UNL1        0.0817
      5 S          63.4627   86.5656   12.7092 S.2     1  UNL1       -0.0660
      6 C          63.0922   85.1300   12.9365 C.ar    1  UNL1        0.1030
      7 C          62.7047   84.2625   11.7757 C.ar    1  UNL1        0.2959
      8 C          62.3341   82.8269   12.0030 C.ar    1  UNL1        0.0797
      9 C          62.3510   82.2587   13.3912 C.ar    1  UNL1        0.0776
     10 C          62.7385   83.1261   14.5519 C.ar    1  UNL1        0.0079
     11 C          63.1090   84.5618   14.3246 C.ar    1  UNL1        0.0509
     12 N          64.2207   88.8687   13.6426 N.pl3   1  UNL1       -0.2997
     13 C          63.6135   89.6282   12.5005 C.3     1  UNL1        0.1086
     14 C          63.9840   91.0638   12.2732 C.3     1  UNL1        0.0938
     15 N          64.9618   91.7399   13.1880 N.3     1  UNL1       -0.2698
     16 C          65.5691   90.9804   14.3301 C.3     1  UNL1        0.0938
     17 C          65.1985   89.5447   14.5574 C.3     1  UNL1        0.1086
     18 C          65.3324   93.1755   12.9606 C.3     1  UNL1        0.0721
     19 C          66.1297   93.5617   11.7502 C.3     1  UNL1        0.0160
     20 C          66.1418   94.9871   11.2835 C.3     1  UNL1        0.0014
     21 C          66.9391   95.3733   10.0731 C.3     1  UNL1        0.0000
     22 C          67.7243   94.3340    9.3293 C.3     1  UNL1        0.0000
     23 C          67.7123   92.9086    9.7960 C.3     1  UNL1        0.0000
     24 C          66.9150   92.5224   11.0065 C.3     1  UNL1        0.0014
     25 C          61.9804   80.8231   13.6185 C.3     1  UNL1        0.4188
     26 F          61.6098   79.3875   13.8458 F       1  UNL1       -0.1659
     27 F          60.8746   81.2538   14.5358 F       1  UNL1       -0.1659
     28 F          63.0863   80.3923   12.7012 F       1  UNL1       -0.1659
     29 N          62.6878   84.8307   10.3876 N.pl3   1  UNL1        0.0814
     30 O          61.6938   85.8937   10.0243 O.2     1  UNL1        0.0415
     31 O          63.6649   84.3359    9.3627 O.co2   1  UNL1       -0.5760
@<TRIPOS>UNITY_ATOM_ATTR
29 1
charge 1
31 1
charge -1
@<TRIPOS>BOND
     1     1     2    2
     2     2     3   ar
     3     3     4   ar
     4     4    12    1
     5    12    13    1
     6    13    14    1
     7    14    15    1
     8    15    18    1
     9    18    19    1
    10    19    20    1
    11    20    21    1
    12    21    22    1
    13    22    23    1
    14    23    24    1
    15    15    16    1
    16    16    17    1
    17     4     5   ar
    18     5     6   ar
    19     6     7   ar
    20     7    29    1
    21    29    30    2
    22    29    31    1
    23     7     8   ar
    24     8     9   ar
    25     9    25    1
    26    25    26    1
    27    25    27    1
    28    25    28    1
    29     9    10   ar
    30    10    11   ar
    31    11     2   ar
    32    17    12    1
    33    11     6   ar
    34    24    19    1
@<TRIPOS>MOLECULE
*****
 31 34 0 0 0
SMALL
GASTEIGER

@<TRIPOS>ATOM
      1 O          64.1161   82.2338   15.7661 O.2     1  UNL1       -0.2865
      2 C          63.8463   83.3282   14.7764 C.ar    1  UNL1        0.1981
      3 C          63.9692   84.7637   15.1936 C.ar    1  UNL1        0.0633
      4 C          63.6994   85.8581   14.2038 C.ar    1  UNL1        0.0817
      5 S          63.3067   85.5169   12.7970 S.2     1  UNL1       -0.0660
      6 C          63.1839   84.0814   12.3798 C.ar    1  UNL1        0.1030
      7 C          62.7913   83.7402   10.9728 C.ar    1  UNL1        0.2959
      8 C          62.6684   82.3046   10.5556 C.ar    1  UNL1        0.0797
      9 C          62.9382   81.2103   11.5454 C.ar    1  UNL1        0.0776
     10 C          63.3309   81.5514   12.9523 C.ar    1  UNL1        0.0079
     11 C          63.4537   82.9870   13.3695 C.ar    1  UNL1        0.0509
     12 N          63.8222   87.2937   14.6211 N.pl3   1  UNL1       -0.2997
     13 C          64.2627   88.3282   13.6282 C.3     1  UNL1        0.1086
     14 C          64.3855   89.7638   14.0454 C.3     1  UNL1        0.0938
     15 N          64.0680   90.1649   15.4555 N.3     1  UNL1       -0.2698
     16 C          63.6276   89.1304   16.4484 C.3     1  UNL1        0.0938
     17 C          63.5047   87.6947   16.0311 C.3     1  UNL1        0.1086
     18 C          64.1908   91.6004   15.8727 C.3     1  UNL1        0.0721
     19 C          65.4558   92.3569   15.5938 C.3     1  UNL1        0.0160
     20 C          66.5344   92.4238   16.6340 C.3     1  UNL1        0.0014
     21 C          67.7993   93.1803   16.3552 C.3     1  UNL1        0.0000
     22 C          67.9856   93.8697   15.0362 C.3     1  UNL1        0.0000
     23 C          66.9070   93.8028   13.9960 C.3     1  UNL1        0.0000
     24 C          65.6421   93.0463   14.2748 C.3     1  UNL1        0.0014
     25 C          62.8154   79.7746   11.1281 C.3     1  UNL1        0.4188
     26 F          62.6925   78.3391   10.7110 F       1  UNL1       -0.1659
     27 F          62.5216   79.3874   12.5472 F       1  UNL1       -0.1659
     28 F          63.1091   80.1619    9.7091 F       1  UNL1       -0.1659
     29 N          62.5215   84.8346    9.9831 N.pl3   1  UNL1        0.0814
     30 O          61.3459   85.7464   10.1751 O.2     1  UNL1        0.0415
     31 O          63.4271   85.0171    8.8014 O.co2   1  UNL1       -0.5760
@<TRIPOS>UNITY_ATOM_ATTR
29 1
charge 1
31 1
charge -1
@<TRIPOS>BOND
     1     1     2    2
     2     2     3   ar
     3     3     4   ar
     4     4    12    1
     5    12    13    1
     6    13    14    1
     7    14    15    1
     8    15    18    1
     9    18    19    1
    10    19    20    1
    11    20    21    1
    12    21    22    1
    13    22    23    1
    14    23    24    1
    15    15    16    1
    16    16    17    1
    17     4     5   ar
    18     5     6   ar
    19     6     7   ar
    20     7    29    1
    21    29    30    2
    22    29    31    1
    23     7     8   ar
    24     8     9   ar
    25     9    25    1
    26    25    26    1
    27    25    27    1
    28    25    28    1
    29     9    10   ar
    30    10    11   ar
    31    11     2   ar
    32    17    12    1
    33    11     6   ar
    34    24    19    1
@<TRIPOS>MOLECULE
*****
 31 34 0 0 0
SMALL
GASTEIGER

@<TRIPOS>ATOM
      1 O          62.7040   84.3658    8.7053 O.2     1  UNL1       -0.2865
      2 C          62.9275   84.5620   10.1755 C.ar    1  UNL1        0.1981
      3 C          63.0934   85.9455   10.7309 C.ar    1  UNL1        0.0633
      4 C          63.3170   86.1417   12.2011 C.ar    1  UNL1        0.0817
      5 S          63.3746   84.9544   13.1160 S.2     1  UNL1       -0.0660
      6 C          63.2087   83.5709   12.5606 C.ar    1  UNL1        0.1030
      7 C          63.2663   82.3836   13.4755 C.ar    1  UNL1        0.2959
      8 C          63.1004   81.0001   12.9201 C.ar    1  UNL1        0.0797
      9 C          62.8769   80.8039   11.4499 C.ar    1  UNL1        0.0776
     10 C          62.8192   81.9912   10.5350 C.ar    1  UNL1        0.0079
     11 C          62.9852   83.3748   11.0904 C.ar    1  UNL1        0.0509
     12 N          63.4829   87.5252   12.7564 N.pl3   1  UNL1       -0.2997
     13 C          64.1463   87.7248   14.0869 C.3     1  UNL1        0.1086
     14 C          64.3122   89.1082   14.6423 C.3     1  UNL1        0.0938
     15 N          63.8148   90.2922   13.8671 N.3     1  UNL1       -0.2698
     16 C          63.1514   90.0927   12.5367 C.3     1  UNL1        0.0938
     17 C          62.9855   88.7091   11.9813 C.3     1  UNL1        0.1086
     18 C          63.9807   91.6757   14.4225 C.3     1  UNL1        0.0721
     19 C          65.3537   92.2147   14.6953 C.3     1  UNL1        0.0160
     20 C          65.8180   92.4037   16.1090 C.3     1  UNL1        0.0014
     21 C          67.1910   92.9427   16.3817 C.3     1  UNL1        0.0000
     22 C          68.0996   93.2927   15.2408 C.3     1  UNL1        0.0000
     23 C          67.6353   93.1038   13.8271 C.3     1  UNL1        0.0000
     24 C          66.2623   92.5647   13.5543 C.3     1  UNL1        0.0014
     25 C          62.7110   79.4204   10.8946 C.3     1  UNL1        0.4188
     26 F          62.5450   78.0369   10.3393 F       1  UNL1       -0.1659
     27 F          62.4962   78.8897   12.2810 F       1  UNL1       -0.1659
     28 F          62.9257   79.9511    9.5081 F       1  UNL1       -0.1659
     29 N          63.4899   82.5798   14.9457 N.pl3   1  UNL1        0.0814
     30 O          64.8677   82.4343   15.5208 O.2     1  UNL1        0.0415
     31 O          62.3358   82.9214   15.8408 O.co2   1  UNL1       -0.5760
@<TRIPOS>UNITY_ATOM_ATTR
29 1
charge 1
31 1
charge -1
@<TRIPOS>BOND
     1     1     2    2
     2     2     3   ar
     3     3     4   ar
     4     4    12    1
     5    12    13    1
     6    13    14    1
     7    14    15    1
     8    15    18    1
     9    18    19    1
    10    19    20    1
    11    20    21    1
    12    21    22    1
    13    22    23    1
    14    23    24    1
    15    15    16    1
    16    16    17    1
    17     4     5   ar
    18     5     6   ar
    19     6     7   ar
    20     7    29    1
    21    29    30    2
    22    29    31    1
    23     7     8   ar
    24     8     9   ar
    25     9    25    1
    26    25    26    1
    27    25    27    1
    28    25    28    1
    29     9    10   ar
    30    10    11   ar
    31    11     2   ar
    32    17    12    1
    33    11     6   ar
    34    24    19    1
@<TRIPOS>MOLECULE
*****
 31 34 0 0 0
SMALL
GASTEIGER

@<TRIPOS>ATOM
      1 O          61.2242   85.0890    9.7360 O.2     1  UNL1       -0.2865
      2 C          62.0064   85.7155   10.8521 C.ar    1  UNL1        0.1981
      3 C          62.3820   87.1660   10.7827 C.ar    1  UNL1        0.0633
      4 C          63.1641   87.7925   11.8988 C.ar    1  UNL1        0.0817
      5 S          63.5708   86.9685   13.0843 S.2     1  UNL1       -0.0660
      6 C          63.1952   85.5180   13.1538 C.ar    1  UNL1        0.1030
      7 C          63.6018   84.6938   14.3394 C.ar    1  UNL1        0.2959
      8 C          63.2263   83.2433   14.4088 C.ar    1  UNL1        0.0797
      9 C          62.4441   82.6168   13.2927 C.ar    1  UNL1        0.0776
     10 C          62.0374   83.4409   12.1071 C.ar    1  UNL1        0.0079
     11 C          62.4130   84.8915   12.0377 C.ar    1  UNL1        0.0509
     12 N          63.5397   89.2431   11.8293 N.pl3   1  UNL1       -0.2997
     13 C          63.2768   90.0268   10.5776 C.3     1  UNL1        0.1086
     14 C          63.6524   91.4773   10.5080 C.3     1  UNL1        0.0938
     15 N          64.2908   92.1443   11.6903 N.3     1  UNL1       -0.2698
     16 C          64.5537   91.3607   12.9420 C.3     1  UNL1        0.0938
     17 C          64.1781   89.9100   13.0115 C.3     1  UNL1        0.1086
     18 C          64.6663   93.5948   11.6208 C.3     1  UNL1        0.0721
     19 C          65.7748   94.0399   10.7135 C.3     1  UNL1        0.0160
     20 C          66.7817   93.0457   10.2159 C.3     1  UNL1        0.0014
     21 C          67.8902   93.4909    9.3086 C.3     1  UNL1        0.0000
     22 C          67.9917   94.9302    8.8989 C.3     1  UNL1        0.0000
     23 C          66.9847   95.9244    9.3964 C.3     1  UNL1        0.0000
     24 C          65.8763   95.4793   10.3037 C.3     1  UNL1        0.0014
     25 C          62.0685   81.1662   13.3622 C.3     1  UNL1        0.4188
     26 F          61.6930   79.7157   13.4316 F       1  UNL1       -0.1659
     27 F          62.8509   80.9037   12.1097 F       1  UNL1       -0.1659
     28 F          61.2861   81.4287   14.6147 F       1  UNL1       -0.1659
     29 N          64.3840   85.3203   15.4555 N.pl3   1  UNL1        0.0814
     30 O          65.8386   85.6350   15.2674 O.2     1  UNL1        0.0415
     31 O          63.7117   85.6321   16.7596 O.co2   1  UNL1       -0.5760
@<TRIPOS>UNITY_ATOM_ATTR
29 1
charge 1
31 1
charge -1
@<TRIPOS>BOND
     1     1     2    2
     2     2     3   ar
     3     3     4   ar
     4     4    12    1
     5    12    13    1
     6    13    14    1
     7    14    15    1
     8    15    18    1
     9    18    19    1
    10    19    20    1
    11    20    21    1
    12    21    22    1
    13    22    23    1
    14    23    24    1
    15    15    16    1
    16    16    17    1
    17     4     5   ar
    18     5     6   ar
    19     6     7   ar
    20     7    29    1
    21    29    30    2
    22    29    31    1
    23     7     8   ar
    24     8     9   ar
    25     9    25    1
    26    25    26    1
    27    25    27    1
    28    25    28    1
    29     9    10   ar
    30    10    11   ar
    31    11     2   ar
    32    17    12    1
    33    11     6   ar
    34    24    19    1
