@<TRIPOS>MOLECULE
*****
 27 30 0 0 0
SMALL
GASTEIGER

@<TRIPOS>ATOM
      1 C          64.3729   89.9871   14.7542 C.2     1  UNL1        0.1059
      2 C          63.6616   90.1481   16.0650 C.2     1  UNL1        0.0175
      3 C          63.1301   88.9430   16.7827 C.2     1  UNL1        0.0214
      4 C          63.3098   87.5770   16.1897 C.2     1  UNL1        0.0974
      5 N          62.8967   86.2149   16.6633 N.2     1  UNL1       -0.2200
      6 C          63.3528   85.2122   15.6452 C.2     1  UNL1        0.1901
      7 N          64.0477   85.9545   14.5425 N.2     1  UNL1       -0.2237
      8 C          64.0211   87.4160   14.8790 C.2     1  UNL1        0.0845
      9 C          64.5526   88.6211   14.1612 C.3     1  UNL1        0.0939
     10 O          63.5336   91.4765   13.4983 O.2     1  UNL1       -0.1531
     11 S          64.9045   91.1922   14.0364 S.O2    1  UNL1        0.0600
     12 O          66.2755   90.9079   14.5746 O.2     1  UNL1       -0.1531
     13 N          65.4362   92.3972   13.3187 N.3     1  UNL1       -0.1507
     14 C          65.2048   92.5552   11.8450 C.3     1  UNL1        0.1279
     15 C          65.7364   93.7602   11.1272 C.3     1  UNL1        0.1613
     16 O          66.4994   94.8073   11.8831 O.3     1  UNL1       -0.3507
     17 C          66.7309   94.6495   13.3566 C.3     1  UNL1        0.1613
     18 C          66.1992   93.4444   14.0745 C.3     1  UNL1        0.1279
     19 S          63.1496   83.7277   15.7173 S.3     1  UNL1       -0.0709
     20 C          62.1053   83.0713   14.8637 C.3     1  UNL1        0.0914
     21 C          62.4916   82.4384   13.5598 C.ar    1  UNL1       -0.0101
     22 C          62.3439   80.9575   13.3721 C.ar    1  UNL1       -0.0033
     23 C          62.7302   80.3246   12.0682 C.ar    1  UNL1        0.0006
     24 C          63.2641   81.1726   10.9519 C.ar    1  UNL1        0.0114
     25 C          63.4118   82.6534   11.1396 C.ar    1  UNL1        0.0574
     26 CL         63.9456   83.5014   10.0235 Cl      1  UNL1       -0.0823
     27 C          63.0255   83.2863   12.4436 C.ar    1  UNL1        0.0080
@<TRIPOS>BOND
     1    10    11    2
     2    11    12    2
     3    11     1    1
     4     1     2    2
     5     2     3    1
     6     3     4    2
     7     4     5    1
     8     5     6    2
     9     6    19    1
    10    19    20    1
    11    20    21    1
    12    21    22   ar
    13    22    23   ar
    14    23    24   ar
    15    24    25   ar
    16    25    26    1
    17    25    27   ar
    18     6     7    1
    19     7     8    2
    20     8     9    1
    21    11    13    1
    22    13    14    1
    23    14    15    1
    24    15    16    1
    25    16    17    1
    26    17    18    1
    27     9     1    1
    28    18    13    1
    29     8     4    1
    30    27    21   ar
@<TRIPOS>MOLECULE
*****
 27 30 0 0 0
SMALL
GASTEIGER

@<TRIPOS>ATOM
      1 C          64.4696   91.2623   12.2615 C.2     1  UNL1        0.1059
      2 C          64.3382   91.9557   10.9379 C.2     1  UNL1        0.0175
      3 C          63.2666   91.5374    9.9753 C.2     1  UNL1        0.0214
      4 C          62.3264   90.4258   10.3363 C.2     1  UNL1        0.0974
      5 N          61.1811   89.7999    9.5969 N.2     1  UNL1       -0.2200
      6 C          60.6047   88.7198   10.4635 C.2     1  UNL1        0.1901
      7 N          61.3938   88.6781   11.7385 N.2     1  UNL1       -0.2237
      8 C          62.4578   89.7324   11.6599 C.2     1  UNL1        0.0845
      9 C          63.5294   90.1507   12.6225 C.3     1  UNL1        0.0939
     10 O          65.8694   92.8539   12.3493 O.2     1  UNL1       -0.1531
     11 S          65.5413   91.6806   13.2242 S.O2    1  UNL1        0.0600
     12 O          65.2131   90.5073   14.0992 O.2     1  UNL1       -0.1531
     13 N          66.6128   92.0989   14.1869 N.3     1  UNL1       -0.1507
     14 C          66.2448   92.5487   15.5698 C.3     1  UNL1        0.1279
     15 C          67.3164   92.9669   16.5325 C.3     1  UNL1        0.1613
     16 O          68.7560   92.9353   16.1123 O.3     1  UNL1       -0.3507
     17 C          69.1240   92.4855   14.7296 C.3     1  UNL1        0.1613
     18 C          68.0524   92.0673   13.7668 C.3     1  UNL1        0.1279
     19 S          59.4432   87.8365   10.1162 S.3     1  UNL1       -0.0709
     20 C          59.4161   87.1157    8.8010 C.3     1  UNL1        0.0914
     21 C          60.5962   86.2961    8.3704 C.ar    1  UNL1       -0.0101
     22 C          61.7875   86.1650    9.2725 C.ar    1  UNL1       -0.0033
     23 C          62.9677   85.3454    8.8420 C.ar    1  UNL1        0.0006
     24 C          62.9566   84.6568    7.5093 C.ar    1  UNL1        0.0114
     25 C          61.7654   84.7879    6.6073 C.ar    1  UNL1        0.0574
     26 CL         61.7543   84.0994    5.2747 Cl      1  UNL1       -0.0823
     27 C          60.5851   85.6076    7.0379 C.ar    1  UNL1        0.0080
@<TRIPOS>BOND
     1    10    11    2
     2    11    12    2
     3    11     1    1
     4     1     2    2
     5     2     3    1
     6     3     4    2
     7     4     5    1
     8     5     6    2
     9     6    19    1
    10    19    20    1
    11    20    21    1
    12    21    22   ar
    13    22    23   ar
    14    23    24   ar
    15    24    25   ar
    16    25    26    1
    17    25    27   ar
    18     6     7    1
    19     7     8    2
    20     8     9    1
    21    11    13    1
    22    13    14    1
    23    14    15    1
    24    15    16    1
    25    16    17    1
    26    17    18    1
    27     9     1    1
    28    18    13    1
    29     8     4    1
    30    27    21   ar
@<TRIPOS>MOLECULE
*****
 27 30 0 0 0
SMALL
GASTEIGER

@<TRIPOS>ATOM
      1 C          65.0513   91.7012   12.6472 C.2     1  UNL1        0.1059
      2 C          64.9770   92.2995   11.2737 C.2     1  UNL1        0.0175
      3 C          63.9189   91.8435   10.3133 C.2     1  UNL1        0.0214
      4 C          62.9351   90.7892   10.7264 C.2     1  UNL1        0.0974
      5 N          61.7909   90.1448   10.0013 N.2     1  UNL1       -0.2200
      6 C          61.1582   89.1482   10.9267 C.2     1  UNL1        0.1901
      7 N          61.9113   89.1767   12.2236 N.2     1  UNL1       -0.2237
      8 C          63.0095   90.1909   12.0998 C.2     1  UNL1        0.0845
      9 C          64.0675   90.6469   13.0602 C.3     1  UNL1        0.0939
     10 O          67.0776   92.3041   12.4715 O.2     1  UNL1       -0.1531
     11 S          66.1094   92.1572   13.6077 S.O2    1  UNL1        0.0600
     12 O          65.1413   92.0104   14.7439 O.2     1  UNL1       -0.1531
     13 N          67.1675   92.6132   14.5682 N.3     1  UNL1       -0.1507
     14 C          67.4924   94.0727   14.6887 C.3     1  UNL1        0.1279
     15 C          68.5505   94.5286   15.6492 C.3     1  UNL1        0.1613
     16 O          69.2836   93.5252   16.4892 O.3     1  UNL1       -0.3507
     17 C          68.9587   92.0658   16.3688 C.3     1  UNL1        0.1613
     18 C          67.9006   91.6098   15.4083 C.3     1  UNL1        0.1279
     19 S          59.9793   88.2761   10.6106 S.3     1  UNL1       -0.0709
     20 C          60.0943   87.2110    9.5608 C.3     1  UNL1        0.0914
     21 C          61.2316   86.2340    9.6050 C.ar    1  UNL1       -0.0101
     22 C          61.9856   85.9033    8.3512 C.ar    1  UNL1       -0.0033
     23 C          63.1228   84.9263    8.3954 C.ar    1  UNL1        0.0006
     24 C          63.5062   84.2799    9.6937 C.ar    1  UNL1        0.0114
     25 C          62.7522   84.6106   10.9475 C.ar    1  UNL1        0.0574
     26 CL         63.1355   83.9642   12.2457 Cl      1  UNL1       -0.0823
     27 C          61.6149   85.5876   10.9032 C.ar    1  UNL1        0.0080
@<TRIPOS>BOND
     1    10    11    2
     2    11    12    2
     3    11     1    1
     4     1     2    2
     5     2     3    1
     6     3     4    2
     7     4     5    1
     8     5     6    2
     9     6    19    1
    10    19    20    1
    11    20    21    1
    12    21    22   ar
    13    22    23   ar
    14    23    24   ar
    15    24    25   ar
    16    25    26    1
    17    25    27   ar
    18     6     7    1
    19     7     8    2
    20     8     9    1
    21    11    13    1
    22    13    14    1
    23    14    15    1
    24    15    16    1
    25    16    17    1
    26    17    18    1
    27     9     1    1
    28    18    13    1
    29     8     4    1
    30    27    21   ar
@<TRIPOS>MOLECULE
*****
 27 30 0 0 0
SMALL
GASTEIGER

@<TRIPOS>ATOM
      1 C          63.4923   85.6357   13.7795 C.2     1  UNL1        0.1059
      2 C          64.1465   86.0787   15.0545 C.2     1  UNL1        0.0175
      3 C          64.5334   87.5162   15.2388 C.2     1  UNL1        0.0214
      4 C          64.2660   88.5106   14.1482 C.2     1  UNL1        0.0974
      5 N          64.5339   89.9829   14.0446 N.2     1  UNL1       -0.2200
      6 C          64.0451   90.4498   12.7055 C.2     1  UNL1        0.1901
      7 N          63.4753   89.2661   11.9815 N.2     1  UNL1       -0.2237
      8 C          63.6118   88.0676   12.8732 C.2     1  UNL1        0.0845
      9 C          63.2249   86.6302   12.6888 C.3     1  UNL1        0.0939
     10 O          64.1587   84.0503   12.5375 O.2     1  UNL1       -0.1531
     11 S          63.1054   84.1982   13.5951 S.O2    1  UNL1        0.0600
     12 O          62.0520   84.3461   14.6527 O.2     1  UNL1       -0.1531
     13 N          62.7184   82.7608   13.4108 N.3     1  UNL1       -0.1507
     14 C          63.2825   81.9731   12.2655 C.3     1  UNL1        0.1279
     15 C          62.8956   80.5357   12.0812 C.3     1  UNL1        0.1613
     16 O          61.9446   79.8859   13.0420 O.3     1  UNL1       -0.3507
     17 C          61.3804   80.6734   14.1872 C.3     1  UNL1        0.1613
     18 C          61.7674   82.1109   14.3716 C.3     1  UNL1        0.1279
     19 S          64.1141   91.8539   12.1822 S.3     1  UNL1       -0.0709
     20 C          65.2983   92.7168   12.5037 C.3     1  UNL1        0.0914
     21 C          66.1049   93.3266   11.3958 C.ar    1  UNL1       -0.0101
     22 C          65.9756   94.7897   11.0915 C.ar    1  UNL1       -0.0033
     23 C          66.7822   95.3994    9.9836 C.ar    1  UNL1        0.0006
     24 C          67.7181   94.5460    9.1799 C.ar    1  UNL1        0.0114
     25 C          67.8474   93.0829    9.4841 C.ar    1  UNL1        0.0574
     26 CL         68.7832   92.2296    8.6805 Cl      1  UNL1       -0.0823
     27 C          67.0407   92.4732   10.5921 C.ar    1  UNL1        0.0080
@<TRIPOS>BOND
     1    10    11    2
     2    11    12    2
     3    11     1    1
     4     1     2    2
     5     2     3    1
     6     3     4    2
     7     4     5    1
     8     5     6    2
     9     6    19    1
    10    19    20    1
    11    20    21    1
    12    21    22   ar
    13    22    23   ar
    14    23    24   ar
    15    24    25   ar
    16    25    26    1
    17    25    27   ar
    18     6     7    1
    19     7     8    2
    20     8     9    1
    21    11    13    1
    22    13    14    1
    23    14    15    1
    24    15    16    1
    25    16    17    1
    26    17    18    1
    27     9     1    1
    28    18    13    1
    29     8     4    1
    30    27    21   ar
@<TRIPOS>MOLECULE
*****
 27 30 0 0 0
SMALL
GASTEIGER

@<TRIPOS>ATOM
      1 C          65.6054   92.4537   13.4408 C.2     1  UNL1        0.1059
      2 C          65.8816   93.0093   14.8064 C.2     1  UNL1        0.0175
      3 C          65.3227   92.3282   16.0204 C.2     1  UNL1        0.0214
      4 C          64.4876   91.0914   15.8687 C.2     1  UNL1        0.0974
      5 N          63.8074   90.2100   16.8740 N.2     1  UNL1       -0.2200
      6 C          63.1109   89.1097   16.1297 C.2     1  UNL1        0.1901
      7 N          63.3606   89.3110   14.6643 N.2     1  UNL1       -0.2237
      8 C          64.2114   90.5358   14.5030 C.2     1  UNL1        0.0845
      9 C          64.7703   91.2169   13.2891 C.3     1  UNL1        0.0939
     10 O          66.7613   94.1993   13.0988 O.2     1  UNL1       -0.1531
     11 S          66.1643   93.1348   12.2268 S.O2    1  UNL1        0.0600
     12 O          65.5674   92.0703   11.3548 O.2     1  UNL1       -0.1531
     13 N          66.7232   93.8159   11.0129 N.3     1  UNL1       -0.1507
     14 C          67.4313   93.0133    9.9618 C.3     1  UNL1        0.1279
     15 C          67.9902   93.6943    8.7479 C.3     1  UNL1        0.1613
     16 O          67.8410   95.1780    8.5848 O.3     1  UNL1       -0.3507
     17 C          67.1331   95.9806    9.6358 C.3     1  UNL1        0.1613
     18 C          66.5741   95.2995   10.8498 C.3     1  UNL1        0.1279
     19 S          62.3061   88.0023   16.7430 S.3     1  UNL1       -0.0709
     20 C          62.9781   86.7261   17.1550 C.3     1  UNL1        0.0914
     21 C          63.3688   85.7155   16.1177 C.ar    1  UNL1       -0.0101
     22 C          64.6308   85.9003   15.3284 C.ar    1  UNL1       -0.0033
     23 C          65.0215   84.8896   14.2911 C.ar    1  UNL1        0.0006
     24 C          64.1501   83.6941   14.0433 C.ar    1  UNL1        0.0114
     25 C          62.8881   83.5092   14.8326 C.ar    1  UNL1        0.0574
     26 CL         62.0167   82.3137   14.5848 Cl      1  UNL1       -0.0823
     27 C          62.4974   84.5200   15.8699 C.ar    1  UNL1        0.0080
@<TRIPOS>BOND
     1    10    11    2
     2    11    12    2
     3    11     1    1
     4     1     2    2
     5     2     3    1
     6     3     4    2
     7     4     5    1
     8     5     6    2
     9     6    19    1
    10    19    20    1
    11    20    21    1
    12    21    22   ar
    13    22    23   ar
    14    23    24   ar
    15    24    25   ar
    16    25    26    1
    17    25    27   ar
    18     6     7    1
    19     7     8    2
    20     8     9    1
    21    11    13    1
    22    13    14    1
    23    14    15    1
    24    15    16    1
    25    16    17    1
    26    17    18    1
    27     9     1    1
    28    18    13    1
    29     8     4    1
    30    27    21   ar
@<TRIPOS>MOLECULE
*****
 27 30 0 0 0
SMALL
GASTEIGER

@<TRIPOS>ATOM
      1 C          63.5588   85.4000   13.7684 C.2     1  UNL1        0.1059
      2 C          64.1263   85.7834   15.1029 C.2     1  UNL1        0.0175
      3 C          64.4756   87.2143   15.3862 C.2     1  UNL1        0.0214
      4 C          64.2573   88.2619   14.3351 C.2     1  UNL1        0.0974
      5 N          64.5046   89.7414   14.3260 N.2     1  UNL1       -0.2200
      6 C          64.0899   90.2724   12.9858 C.2     1  UNL1        0.1901
      7 N          63.5863   89.1211   12.1667 N.2     1  UNL1       -0.2237
      8 C          63.6897   87.8786   13.0006 C.2     1  UNL1        0.0845
      9 C          63.3405   86.4476   12.7173 C.3     1  UNL1        0.0939
     10 O          63.8694   83.5541   14.7665 O.2     1  UNL1       -0.1531
     11 S          63.2095   83.9690   13.4850 S.O2    1  UNL1        0.0600
     12 O          62.5496   84.3839   12.2035 O.2     1  UNL1       -0.1531
     13 N          62.8602   82.5381   13.2015 N.3     1  UNL1       -0.1507
     14 C          62.0793   81.7435   14.2060 C.3     1  UNL1        0.1279
     15 C          61.7300   80.3126   13.9226 C.3     1  UNL1        0.1613
     16 O          62.1615   79.6761   12.6347 O.3     1  UNL1       -0.3507
     17 C          62.9424   80.4706   11.6302 C.3     1  UNL1        0.1613
     18 C          63.2918   81.9016   11.9136 C.3     1  UNL1        0.1279
     19 S          64.1655   91.7034   12.5425 S.3     1  UNL1       -0.0709
     20 C          65.3995   92.5101   12.8193 C.3     1  UNL1        0.0914
     21 C          66.1210   93.1877   11.6922 C.ar    1  UNL1       -0.0101
     22 C          66.8744   92.3705   10.6850 C.ar    1  UNL1       -0.0033
     23 C          67.5959   93.0481    9.5579 C.ar    1  UNL1        0.0006
     24 C          67.5640   94.5430    9.4381 C.ar    1  UNL1        0.0114
     25 C          66.8106   95.3602   10.4454 C.ar    1  UNL1        0.0574
     26 CL         66.7787   96.8551   10.3256 Cl      1  UNL1       -0.0823
     27 C          66.0891   94.6825   11.5724 C.ar    1  UNL1        0.0080
@<TRIPOS>BOND
     1    10    11    2
     2    11    12    2
     3    11     1    1
     4     1     2    2
     5     2     3    1
     6     3     4    2
     7     4     5    1
     8     5     6    2
     9     6    19    1
    10    19    20    1
    11    20    21    1
    12    21    22   ar
    13    22    23   ar
    14    23    24   ar
    15    24    25   ar
    16    25    26    1
    17    25    27   ar
    18     6     7    1
    19     7     8    2
    20     8     9    1
    21    11    13    1
    22    13    14    1
    23    14    15    1
    24    15    16    1
    25    16    17    1
    26    17    18    1
    27     9     1    1
    28    18    13    1
    29     8     4    1
    30    27    21   ar
@<TRIPOS>MOLECULE
*****
 27 30 0 0 0
SMALL
GASTEIGER

@<TRIPOS>ATOM
      1 C          62.6756   88.0074   11.7366 C.2     1  UNL1        0.1059
      2 C          63.2150   87.0514   12.7589 C.2     1  UNL1        0.0175
      3 C          64.0223   87.5653   13.9139 C.2     1  UNL1        0.0214
      4 C          64.2902   89.0352   14.0466 C.2     1  UNL1        0.0974
      5 N          65.0473   89.8291   15.0697 N.2     1  UNL1       -0.2200
      6 C          64.9758   91.2757   14.6796 C.2     1  UNL1        0.1901
      7 N          64.1745   91.3759   13.4156 N.2     1  UNL1       -0.2237
      8 C          63.7508   89.9912   13.0243 C.2     1  UNL1        0.0845
      9 C          62.9435   89.4773   11.8693 C.3     1  UNL1        0.0939
     10 O          62.3902   88.6061    9.7216 O.2     1  UNL1       -0.1531
     11 S          61.8682   87.4935   10.5815 S.O2    1  UNL1        0.0600
     12 O          61.3462   86.3808   11.4414 O.2     1  UNL1       -0.1531
     13 N          61.0609   86.9796    9.4265 N.3     1  UNL1       -0.1507
     14 C          61.6384   85.9414    8.5106 C.3     1  UNL1        0.1279
     15 C          60.8311   85.4275    7.3556 C.3     1  UNL1        0.1613
     16 O          59.4462   85.9517    7.1165 O.3     1  UNL1       -0.3507
     17 C          58.8686   86.9898    8.0322 C.3     1  UNL1        0.1613
     18 C          59.6759   87.5037    9.1873 C.3     1  UNL1        0.1279
     19 S          65.5966   92.4211   15.4232 S.3     1  UNL1       -0.0709
     20 C          66.6771   93.2369   14.7773 C.3     1  UNL1        0.0914
     21 C          66.8098   93.2575   13.2834 C.ar    1  UNL1       -0.0101
     22 C          67.5459   92.1557   12.5805 C.ar    1  UNL1       -0.0033
     23 C          67.6786   92.1764   11.0866 C.ar    1  UNL1        0.0006
     24 C          67.0751   93.2989   10.2954 C.ar    1  UNL1        0.0114
     25 C          66.3389   94.4007   10.9983 C.ar    1  UNL1        0.0574
     26 CL         65.7354   95.5231   10.2073 Cl      1  UNL1       -0.0823
     27 C          66.2063   94.3800   12.4923 C.ar    1  UNL1        0.0080
@<TRIPOS>BOND
     1    10    11    2
     2    11    12    2
     3    11     1    1
     4     1     2    2
     5     2     3    1
     6     3     4    2
     7     4     5    1
     8     5     6    2
     9     6    19    1
    10    19    20    1
    11    20    21    1
    12    21    22   ar
    13    22    23   ar
    14    23    24   ar
    15    24    25   ar
    16    25    26    1
    17    25    27   ar
    18     6     7    1
    19     7     8    2
    20     8     9    1
    21    11    13    1
    22    13    14    1
    23    14    15    1
    24    15    16    1
    25    16    17    1
    26    17    18    1
    27     9     1    1
    28    18    13    1
    29     8     4    1
    30    27    21   ar
@<TRIPOS>MOLECULE
*****
 27 30 0 0 0
SMALL
GASTEIGER

@<TRIPOS>ATOM
      1 C          62.0346   86.4615   11.0964 C.2     1  UNL1        0.1059
      2 C          62.4131   87.8615   11.4790 C.2     1  UNL1        0.0175
      3 C          61.9435   89.0189   10.6485 C.2     1  UNL1        0.0214
      4 C          61.0953   88.7762    9.4353 C.2     1  UNL1        0.0974
      5 N          60.4887   89.7113    8.4313 N.2     1  UNL1       -0.2200
      6 C          59.7353   88.8890    7.4283 C.2     1  UNL1        0.1901
      7 N          59.8763   87.4458    7.8123 N.2     1  UNL1       -0.2237
      8 C          60.7168   87.3762    9.0527 C.2     1  UNL1        0.0845
      9 C          61.1864   86.2188    9.8832 C.3     1  UNL1        0.0939
     10 O          61.9958   84.3509   10.8863 O.2     1  UNL1       -0.1531
     11 S          62.5042   85.3040   11.9270 S.O2    1  UNL1        0.0600
     12 O          63.0126   86.2570   12.9676 O.2     1  UNL1       -0.1531
     13 N          62.9738   84.1466   12.7575 N.3     1  UNL1       -0.1507
     14 C          62.8042   82.7440   12.2534 C.3     1  UNL1        0.1279
     15 C          63.2738   81.5866   13.0840 C.3     1  UNL1        0.1613
     16 O          63.9130   81.8317   14.4186 O.3     1  UNL1       -0.3507
     17 C          64.0827   83.2342   14.9227 C.3     1  UNL1        0.1613
     18 C          63.6130   84.3917   14.0922 C.3     1  UNL1        0.1279
     19 S          58.9745   89.4171    6.2483 S.3     1  UNL1       -0.0709
     20 C          58.9744   90.8878    5.9532 C.3     1  UNL1        0.0914
     21 C          59.8319   91.4313    4.8490 C.ar    1  UNL1       -0.0101
     22 C          59.2974   92.4981    3.9401 C.ar    1  UNL1       -0.0033
     23 C          60.1550   93.0416    2.8360 C.ar    1  UNL1        0.0006
     24 C          61.5471   92.5182    2.6407 C.ar    1  UNL1        0.0114
     25 C          62.0816   91.4514    3.5496 C.ar    1  UNL1        0.0574
     26 CL         63.4737   90.9280    3.3544 Cl      1  UNL1       -0.0823
     27 C          61.2240   90.9079    4.6538 C.ar    1  UNL1        0.0080
@<TRIPOS>BOND
     1    10    11    2
     2    11    12    2
     3    11     1    1
     4     1     2    2
     5     2     3    1
     6     3     4    2
     7     4     5    1
     8     5     6    2
     9     6    19    1
    10    19    20    1
    11    20    21    1
    12    21    22   ar
    13    22    23   ar
    14    23    24   ar
    15    24    25   ar
    16    25    26    1
    17    25    27   ar
    18     6     7    1
    19     7     8    2
    20     8     9    1
    21    11    13    1
    22    13    14    1
    23    14    15    1
    24    15    16    1
    25    16    17    1
    26    17    18    1
    27     9     1    1
    28    18    13    1
    29     8     4    1
    30    27    21   ar
@<TRIPOS>MOLECULE
*****
 27 30 0 0 0
SMALL
GASTEIGER

@<TRIPOS>ATOM
      1 C          63.6803   84.8200   13.5687 C.2     1  UNL1        0.1059
      2 C          64.3630   85.0706   14.8806 C.2     1  UNL1        0.0175
      3 C          64.6524   86.4756   15.3191 C.2     1  UNL1        0.0214
      4 C          64.2590   87.6299   14.4457 C.2     1  UNL1        0.0974
      5 N          64.4129   89.1127   14.6124 N.2     1  UNL1       -0.2200
      6 C          63.8252   89.7784   13.4035 C.2     1  UNL1        0.1901
      7 N          63.3082   88.7071   12.4898 N.2     1  UNL1       -0.2237
      8 C          63.5762   87.3793   13.1339 C.2     1  UNL1        0.0845
      9 C          63.2869   85.9743   12.6954 C.3     1  UNL1        0.0939
     10 O          63.3069   83.8769   11.7056 O.2     1  UNL1       -0.1531
     11 S          63.3909   83.4150   13.1302 S.O2    1  UNL1        0.0600
     12 O          63.4749   82.9530   14.5548 O.2     1  UNL1       -0.1531
     13 N          63.1015   82.0100   12.6917 N.3     1  UNL1       -0.1507
     14 C          62.6247   80.9962   13.6891 C.3     1  UNL1        0.1279
     15 C          62.3353   79.5912   13.2506 C.3     1  UNL1        0.1613
     16 O          62.5228   79.2000   11.8147 O.3     1  UNL1       -0.3507
     17 C          62.9996   80.2138   10.8173 C.3     1  UNL1        0.1613
     18 C          63.2890   81.6188   11.2558 C.3     1  UNL1        0.1279
     19 S          63.7651   91.2561   13.1524 S.3     1  UNL1       -0.0709
     20 C          65.0142   92.0085   12.8007 C.3     1  UNL1        0.0914
     21 C          66.0960   92.1863   13.8244 C.ar    1  UNL1       -0.0101
     22 C          65.7377   92.4840   15.2502 C.ar    1  UNL1       -0.0033
     23 C          66.8195   92.6619   16.2739 C.ar    1  UNL1        0.0006
     24 C          68.2597   92.5421   15.8718 C.ar    1  UNL1        0.0114
     25 C          68.6180   92.2444   14.4460 C.ar    1  UNL1        0.0574
     26 CL         70.0581   92.1246   14.0439 Cl      1  UNL1       -0.0823
     27 C          67.5361   92.0665   13.4223 C.ar    1  UNL1        0.0080
@<TRIPOS>BOND
     1    10    11    2
     2    11    12    2
     3    11     1    1
     4     1     2    2
     5     2     3    1
     6     3     4    2
     7     4     5    1
     8     5     6    2
     9     6    19    1
    10    19    20    1
    11    20    21    1
    12    21    22   ar
    13    22    23   ar
    14    23    24   ar
    15    24    25   ar
    16    25    26    1
    17    25    27   ar
    18     6     7    1
    19     7     8    2
    20     8     9    1
    21    11    13    1
    22    13    14    1
    23    14    15    1
    24    15    16    1
    25    16    17    1
    26    17    18    1
    27     9     1    1
    28    18    13    1
    29     8     4    1
    30    27    21   ar
