@<TRIPOS>MOLECULE
*****
 27 29 0 0 0
SMALL
GASTEIGER

@<TRIPOS>ATOM
      1 C          63.8436   87.8682   15.2063 C.ar    1  UNL1        0.0182
      2 C          63.2925   88.4230   16.4863 C.ar    1  UNL1        0.0015
      3 C          63.3125   89.9025   16.7325 C.ar    1  UNL1        0.0001
      4 C          63.8835   90.8272   15.6986 C.ar    1  UNL1        0.0001
      5 C          64.4345   90.2724   14.4185 C.ar    1  UNL1        0.0030
      6 C          64.4145   88.7929   14.1724 C.ar    1  UNL1        0.0016
      7 C          65.0054   91.1971   13.3846 C.ar    1  UNL1        0.0343
      8 C          64.2468   91.4672   12.1192 C.ar    1  UNL1        0.0030
      9 C          64.8178   92.3919   11.0853 C.ar    1  UNL1        0.0002
     10 C          66.1474   93.0464   11.3168 C.ar    1  UNL1        0.0031
     11 C          66.9060   92.7763   12.5823 C.ar    1  UNL1        0.0372
     12 C          66.3351   91.8516   13.6162 C.ar    1  UNL1        0.1467
     13 O          67.0938   91.5815   14.8817 O.3     1  UNL1       -0.4045
     14 C          67.7434   92.7124   15.6226 C.3     1  UNL1        0.5753
     15 F          68.3932   93.8434   16.3635 F       1  UNL1       -0.1328
     16 F          69.0326   92.4418   14.9052 F       1  UNL1       -0.1328
     17 F          66.4543   92.9830   16.3400 F       1  UNL1       -0.1328
     18 C          63.7369   84.2354   13.8436 C.ar    1  UNL1        0.1638
     19 N          63.7211   85.7188   13.6219 N.ar    1  UNL1       -0.2337
     20 C          63.8237   86.3886   14.9601 C.ar    1  UNL1        0.0885
     21 C          63.9027   85.3192   16.0089 C.ar    1  UNL1        0.0561
     22 S          63.8491   83.9884   15.3189 S.2     1  UNL1       -0.0615
     23 N          64.8266   82.9389   11.8734 N.am    1  UNL1       -0.3236
     24 C          63.6548   83.1836   12.7773 C.2     1  UNL1        0.2667
     25 O          62.4009   82.3765   12.6149 O.2     1  UNL1       -0.2682
     26 H          64.7727   82.2486   11.1736 H       1  UNL1        0.1453
     27 H          65.6496   83.4686   11.9800 H       1  UNL1        0.1453
@<TRIPOS>BOND
     1    23    24   am
     2    24    25    2
     3    24    18    1
     4    18    19   ar
     5    19    20   ar
     6    20     1    1
     7     1     2   ar
     8     2     3   ar
     9     3     4   ar
    10     4     5   ar
    11     5     7    1
    12     7     8   ar
    13     8     9   ar
    14     9    10   ar
    15    10    11   ar
    16    11    12   ar
    17    12    13    1
    18    13    14    1
    19    14    15    1
    20    14    16    1
    21    14    17    1
    22     5     6   ar
    23    20    21   ar
    24    21    22   ar
    25    22    18   ar
    26     6     1   ar
    27    12     7   ar
    28    23    26    1
    29    23    27    1
@<TRIPOS>MOLECULE
*****
 27 29 0 0 0
SMALL
GASTEIGER

@<TRIPOS>ATOM
      1 C          63.6186   86.3105   15.3479 C.ar    1  UNL1        0.0182
      2 C          63.0739   86.5382   16.7268 C.ar    1  UNL1        0.0015
      3 C          62.9963   87.9294   17.2822 C.ar    1  UNL1        0.0001
      4 C          63.4634   89.0929   16.4587 C.ar    1  UNL1        0.0001
      5 C          64.0080   88.8652   15.0798 C.ar    1  UNL1        0.0030
      6 C          64.0856   87.4740   14.5244 C.ar    1  UNL1        0.0016
      7 C          64.4751   90.0287   14.2562 C.ar    1  UNL1        0.0343
      8 C          65.7232   90.7666   14.6405 C.ar    1  UNL1        0.0030
      9 C          66.1902   91.9301   13.8170 C.ar    1  UNL1        0.0002
     10 C          65.4092   92.3556   12.6092 C.ar    1  UNL1        0.0031
     11 C          64.1611   91.6177   12.2249 C.ar    1  UNL1        0.0372
     12 C          63.6941   90.4542   13.0484 C.ar    1  UNL1        0.1467
     13 O          62.4459   89.7163   12.6641 O.3     1  UNL1       -0.4045
     14 C          62.2651   89.2307   11.2564 C.3     1  UNL1        0.5753
     15 F          62.0843   88.7452    9.8487 F       1  UNL1       -0.1328
     16 F          61.4676   90.4598   10.9349 F       1  UNL1       -0.1328
     17 F          63.0626   88.0017   11.5779 F       1  UNL1       -0.1328
     18 C          63.1995   82.5906   14.3221 C.ar    1  UNL1        0.1638
     19 N          62.7450   83.7976   15.0878 N.ar    1  UNL1       -0.2337
     20 C          63.6962   84.9193   14.7924 C.ar    1  UNL1        0.0885
     21 C          64.7386   84.4054   13.8441 C.ar    1  UNL1        0.0561
     22 S          64.4317   82.9662   13.5534 S.2     1  UNL1       -0.0615
     23 N          61.0415   81.1439   14.3229 N.am    1  UNL1       -0.3236
     24 C          62.5381   81.2443   14.3246 C.2     1  UNL1        0.2667
     25 O          63.3734   79.9984   14.3287 O.2     1  UNL1       -0.2682
     26 H          60.6074   80.2603   14.3245 H       1  UNL1        0.1453
     27 H          60.4933   81.9617   14.3202 H       1  UNL1        0.1453
@<TRIPOS>BOND
     1    23    24   am
     2    24    25    2
     3    24    18    1
     4    18    19   ar
     5    19    20   ar
     6    20     1    1
     7     1     2   ar
     8     2     3   ar
     9     3     4   ar
    10     4     5   ar
    11     5     7    1
    12     7     8   ar
    13     8     9   ar
    14     9    10   ar
    15    10    11   ar
    16    11    12   ar
    17    12    13    1
    18    13    14    1
    19    14    15    1
    20    14    16    1
    21    14    17    1
    22     5     6   ar
    23    20    21   ar
    24    21    22   ar
    25    22    18   ar
    26     6     1   ar
    27    12     7   ar
    28    23    26    1
    29    23    27    1
@<TRIPOS>MOLECULE
*****
 27 29 0 0 0
SMALL
GASTEIGER

@<TRIPOS>ATOM
      1 C          62.2432   86.2930   10.1820 C.ar    1  UNL1        0.0182
      2 C          62.7934   86.0354    8.8106 C.ar    1  UNL1        0.0015
      3 C          63.4523   84.7239    8.5011 C.ar    1  UNL1        0.0001
      4 C          63.5610   83.6701    9.5630 C.ar    1  UNL1        0.0001
      5 C          63.0107   83.9278   10.9345 C.ar    1  UNL1        0.0030
      6 C          62.3519   85.2392   11.2440 C.ar    1  UNL1        0.0016
      7 C          63.1194   82.8739   11.9964 C.ar    1  UNL1        0.0343
      8 C          62.4788   81.5333   11.7909 C.ar    1  UNL1        0.0030
      9 C          62.5875   80.4795   12.8528 C.ar    1  UNL1        0.0002
     10 C          63.3368   80.7663   14.1202 C.ar    1  UNL1        0.0031
     11 C          63.9774   82.1070   14.3256 C.ar    1  UNL1        0.0372
     12 C          63.8687   83.1608   13.2637 C.ar    1  UNL1        0.1467
     13 O          64.5094   84.5015   13.4692 O.3     1  UNL1       -0.4045
     14 C          64.2209   85.2877   14.7137 C.3     1  UNL1        0.5753
     15 F          63.9326   86.0739   15.9582 F       1  UNL1       -0.1328
     16 F          65.6787   85.6161   14.8440 F       1  UNL1       -0.1328
     17 F          62.7632   84.9592   14.5833 F       1  UNL1       -0.1328
     18 C          60.0476   89.2653   11.3700 C.ar    1  UNL1        0.1638
     19 N          60.3513   87.7971   11.3240 N.ar    1  UNL1       -0.2337
     20 C          61.5843   87.6046   10.4916 C.ar    1  UNL1        0.0885
     21 C          62.0426   88.9538   10.0232 C.ar    1  UNL1        0.0561
     22 S          61.0929   89.9802   10.5660 S.2     1  UNL1       -0.0615
     23 N          58.5559   91.3421   11.8298 N.am    1  UNL1       -0.3236
     24 C          58.9002   89.9061   12.0930 C.2     1  UNL1        0.2667
     25 O          58.0970   89.1108   13.0791 O.2     1  UNL1       -0.2682
     26 H          57.8027   91.7627   12.3043 H       1  UNL1        0.1453
     27 H          59.0830   91.8641   11.1826 H       1  UNL1        0.1453
@<TRIPOS>BOND
     1    23    24   am
     2    24    25    2
     3    24    18    1
     4    18    19   ar
     5    19    20   ar
     6    20     1    1
     7     1     2   ar
     8     2     3   ar
     9     3     4   ar
    10     4     5   ar
    11     5     7    1
    12     7     8   ar
    13     8     9   ar
    14     9    10   ar
    15    10    11   ar
    16    11    12   ar
    17    12    13    1
    18    13    14    1
    19    14    15    1
    20    14    16    1
    21    14    17    1
    22     5     6   ar
    23    20    21   ar
    24    21    22   ar
    25    22    18   ar
    26     6     1   ar
    27    12     7   ar
    28    23    26    1
    29    23    27    1
@<TRIPOS>MOLECULE
*****
 27 29 0 0 0
SMALL
GASTEIGER

@<TRIPOS>ATOM
      1 C          62.6884   87.9910   11.6594 C.ar    1  UNL1        0.0182
      2 C          61.9169   88.1564   10.3837 C.ar    1  UNL1        0.0015
      3 C          61.4112   86.9492    9.6511 C.ar    1  UNL1        0.0001
      4 C          61.6770   85.5764   10.1942 C.ar    1  UNL1        0.0001
      5 C          62.4485   85.4110   11.4699 C.ar    1  UNL1        0.0030
      6 C          62.9542   86.6182   12.2025 C.ar    1  UNL1        0.0016
      7 C          62.7142   84.0382   12.0130 C.ar    1  UNL1        0.0343
      8 C          63.0374   82.9111   11.0775 C.ar    1  UNL1        0.0030
      9 C          63.3032   81.5384   11.6206 C.ar    1  UNL1        0.0002
     10 C          63.2458   81.2927   13.0992 C.ar    1  UNL1        0.0031
     11 C          62.9226   82.4198   14.0347 C.ar    1  UNL1        0.0372
     12 C          62.6568   83.7926   13.4916 C.ar    1  UNL1        0.1467
     13 O          62.3336   84.9197   14.4272 O.3     1  UNL1       -0.4045
     14 C          63.2320   85.2074   15.5934 C.3     1  UNL1        0.5753
     15 F          64.1304   85.4951   16.7597 F       1  UNL1       -0.1328
     16 F          62.0450   85.1970   16.5104 F       1  UNL1       -0.1328
     17 F          64.4190   85.2178   14.6764 F       1  UNL1       -0.1328
     18 C          63.9267   90.6818   14.1678 C.ar    1  UNL1        0.1638
     19 N          63.4173   89.3023   13.8717 N.ar    1  UNL1       -0.2337
     20 C          63.1942   89.1983   12.3920 C.ar    1  UNL1        0.0885
     21 C          63.5656   90.5134   11.7736 C.ar    1  UNL1        0.0561
     22 S          64.0183   91.4303   12.8711 S.2     1  UNL1       -0.0615
     23 N          65.5205   92.0458   15.7004 N.am    1  UNL1       -0.3236
     24 C          64.2820   91.2185   15.5226 C.2     1  UNL1        0.2667
     25 O          63.3987   90.9279   16.6997 O.2     1  UNL1       -0.2682
     26 H          65.7537   92.3981   16.5897 H       1  UNL1        0.1453
     27 H          66.1002   92.2366   14.9279 H       1  UNL1        0.1453
@<TRIPOS>BOND
     1    23    24   am
     2    24    25    2
     3    24    18    1
     4    18    19   ar
     5    19    20   ar
     6    20     1    1
     7     1     2   ar
     8     2     3   ar
     9     3     4   ar
    10     4     5   ar
    11     5     7    1
    12     7     8   ar
    13     8     9   ar
    14     9    10   ar
    15    10    11   ar
    16    11    12   ar
    17    12    13    1
    18    13    14    1
    19    14    15    1
    20    14    16    1
    21    14    17    1
    22     5     6   ar
    23    20    21   ar
    24    21    22   ar
    25    22    18   ar
    26     6     1   ar
    27    12     7   ar
    28    23    26    1
    29    23    27    1
@<TRIPOS>MOLECULE
*****
 27 29 0 0 0
SMALL
GASTEIGER

@<TRIPOS>ATOM
      1 C          62.5938   89.0220   11.7725 C.ar    1  UNL1        0.0182
      2 C          61.1836   89.2915   11.3382 C.ar    1  UNL1        0.0015
      3 C          60.3001   88.1564   10.9128 C.ar    1  UNL1        0.0001
      4 C          60.8268   86.7520   10.9217 C.ar    1  UNL1        0.0001
      5 C          62.2370   86.4825   11.3560 C.ar    1  UNL1        0.0030
      6 C          63.1205   87.6176   11.7815 C.ar    1  UNL1        0.0016
      7 C          62.7637   85.0781   11.3650 C.ar    1  UNL1        0.0343
      8 C          63.2409   84.4479   10.0902 C.ar    1  UNL1        0.0030
      9 C          63.7676   83.0435   10.0991 C.ar    1  UNL1        0.0002
     10 C          63.8170   82.2691   11.3828 C.ar    1  UNL1        0.0031
     11 C          63.3397   82.8993   12.6576 C.ar    1  UNL1        0.0372
     12 C          62.8130   84.3037   12.6486 C.ar    1  UNL1        0.1467
     13 O          62.3357   84.9338   13.9235 O.3     1  UNL1       -0.4045
     14 C          63.2652   85.0540   15.0946 C.3     1  UNL1        0.5753
     15 F          64.1948   85.1741   16.2658 F       1  UNL1       -0.1328
     16 F          62.3106   84.2577   15.9340 F       1  UNL1       -0.1328
     17 F          64.2199   85.8502   14.2552 F       1  UNL1       -0.1328
     18 C          64.8732   92.1419   12.1423 C.ar    1  UNL1        0.1638
     19 N          64.0551   91.2096   11.2988 N.ar    1  UNL1       -0.2337
     20 C          63.4774   90.1571   12.1980 C.ar    1  UNL1        0.0885
     21 C          63.9385   90.4389   13.5973 C.ar    1  UNL1        0.0561
     22 S          64.8011   91.6656   13.5629 S.2     1  UNL1       -0.0615
     23 N          65.3034   93.9384   10.3154 N.am    1  UNL1       -0.3236
     24 C          65.6304   93.3401   11.6515 C.2     1  UNL1        0.2667
     25 O          66.7146   93.9401   12.4968 O.2     1  UNL1       -0.2682
     26 H          65.8004   94.7248    9.9932 H       1  UNL1        0.1453
     27 H          64.5918   93.5446    9.7606 H       1  UNL1        0.1453
@<TRIPOS>BOND
     1    23    24   am
     2    24    25    2
     3    24    18    1
     4    18    19   ar
     5    19    20   ar
     6    20     1    1
     7     1     2   ar
     8     2     3   ar
     9     3     4   ar
    10     4     5   ar
    11     5     7    1
    12     7     8   ar
    13     8     9   ar
    14     9    10   ar
    15    10    11   ar
    16    11    12   ar
    17    12    13    1
    18    13    14    1
    19    14    15    1
    20    14    16    1
    21    14    17    1
    22     5     6   ar
    23    20    21   ar
    24    21    22   ar
    25    22    18   ar
    26     6     1   ar
    27    12     7   ar
    28    23    26    1
    29    23    27    1
@<TRIPOS>MOLECULE
*****
 27 29 0 0 0
SMALL
GASTEIGER

@<TRIPOS>ATOM
      1 C          62.5969   89.6040   11.5791 C.ar    1  UNL1        0.0182
      2 C          61.1784   89.9609   11.2468 C.ar    1  UNL1        0.0015
      3 C          60.1890   88.8805   10.9248 C.ar    1  UNL1        0.0001
      4 C          60.6181   87.4432   10.9351 C.ar    1  UNL1        0.0001
      5 C          62.0366   87.0863   11.2675 C.ar    1  UNL1        0.0030
      6 C          63.0260   88.1667   11.5895 C.ar    1  UNL1        0.0016
      7 C          62.4657   85.6490   11.2778 C.ar    1  UNL1        0.0343
      8 C          62.5071   84.8880   12.5697 C.ar    1  UNL1        0.0030
      9 C          62.9362   83.4507   12.5800 C.ar    1  UNL1        0.0002
     10 C          63.3239   82.7745   11.2985 C.ar    1  UNL1        0.0031
     11 C          63.2825   83.5356   10.0066 C.ar    1  UNL1        0.0372
     12 C          62.8534   84.9728    9.9963 C.ar    1  UNL1        0.1467
     13 O          62.8120   85.7339    8.7043 O.3     1  UNL1       -0.4045
     14 C          61.9244   85.2690    7.5881 C.3     1  UNL1        0.5753
     15 F          61.0368   84.8040    6.4718 F       1  UNL1       -0.1328
     16 F          60.7379   85.8707    8.2809 F       1  UNL1       -0.1328
     17 F          63.1110   84.6672    6.8953 F       1  UNL1       -0.1328
     18 C          65.0664   92.5965   11.6905 C.ar    1  UNL1        0.1638
     19 N          64.0991   91.7230   10.9480 N.ar    1  UNL1       -0.2337
     20 C          63.5864   90.6845   11.9011 C.ar    1  UNL1        0.0885
     21 C          64.2367   90.9161   13.2328 C.ar    1  UNL1        0.0561
     22 S          65.1515   92.0977   13.1027 S.2     1  UNL1       -0.0615
     23 N          66.1351   93.8080    9.6558 N.am    1  UNL1       -0.3236
     24 C          65.8169   93.7637   11.1210 C.2     1  UNL1        0.2667
     25 O          66.2493   94.8865   12.0167 O.2     1  UNL1       -0.2682
     26 H          66.6277   94.5741    9.2820 H       1  UNL1        0.1453
     27 H          65.8513   93.0710    9.0679 H       1  UNL1        0.1453
@<TRIPOS>BOND
     1    23    24   am
     2    24    25    2
     3    24    18    1
     4    18    19   ar
     5    19    20   ar
     6    20     1    1
     7     1     2   ar
     8     2     3   ar
     9     3     4   ar
    10     4     5   ar
    11     5     7    1
    12     7     8   ar
    13     8     9   ar
    14     9    10   ar
    15    10    11   ar
    16    11    12   ar
    17    12    13    1
    18    13    14    1
    19    14    15    1
    20    14    16    1
    21    14    17    1
    22     5     6   ar
    23    20    21   ar
    24    21    22   ar
    25    22    18   ar
    26     6     1   ar
    27    12     7   ar
    28    23    26    1
    29    23    27    1
@<TRIPOS>MOLECULE
*****
 27 29 0 0 0
SMALL
GASTEIGER

@<TRIPOS>ATOM
      1 C          62.7927   87.6612   11.9576 C.ar    1  UNL1        0.0182
      2 C          61.9353   88.2008   10.8513 C.ar    1  UNL1        0.0015
      3 C          61.9196   89.6730   10.5647 C.ar    1  UNL1        0.0001
      4 C          62.7612   90.6057   11.3842 C.ar    1  UNL1        0.0001
      5 C          63.6186   90.0662   12.4905 C.ar    1  UNL1        0.0030
      6 C          63.6343   88.5939   12.7771 C.ar    1  UNL1        0.0016
      7 C          64.4603   90.9989   13.3100 C.ar    1  UNL1        0.0343
      8 C          64.4333   90.9138   14.8073 C.ar    1  UNL1        0.0030
      9 C          65.2749   91.8465   15.6269 C.ar    1  UNL1        0.0002
     10 C          66.1436   92.8643   14.9491 C.ar    1  UNL1        0.0031
     11 C          66.1706   92.9494   13.4518 C.ar    1  UNL1        0.0372
     12 C          65.3290   92.0167   12.6323 C.ar    1  UNL1        0.1467
     13 O          65.3560   92.1018   11.1349 O.3     1  UNL1       -0.4045
     14 C          66.2404   93.1057   10.4566 C.3     1  UNL1        0.5753
     15 F          67.1249   94.1096    9.7783 F       1  UNL1       -0.1328
     16 F          67.3010   92.0583   10.2893 F       1  UNL1       -0.1328
     17 F          65.1798   94.1531   10.6239 F       1  UNL1       -0.1328
     18 C          62.9585   84.0660   13.4110 C.ar    1  UNL1        0.1638
     19 N          63.0213   85.5543   13.5867 N.ar    1  UNL1       -0.2337
     20 C          62.8084   86.1889   12.2443 C.ar    1  UNL1        0.0885
     21 C          62.6141   85.0928   11.2390 C.ar    1  UNL1        0.0561
     22 S          62.7068   83.7807   11.9600 S.2     1  UNL1       -0.0615
     23 N          62.0666   81.9933   14.6989 N.am    1  UNL1       -0.3236
     24 C          63.1191   83.0426   14.4959 C.2     1  UNL1        0.2667
     25 O          64.3323   83.0685   15.3776 O.2     1  UNL1       -0.2682
     26 H          62.1721   81.3216   15.4109 H       1  UNL1        0.1453
     27 H          61.2704   81.9763   14.1202 H       1  UNL1        0.1453
@<TRIPOS>BOND
     1    23    24   am
     2    24    25    2
     3    24    18    1
     4    18    19   ar
     5    19    20   ar
     6    20     1    1
     7     1     2   ar
     8     2     3   ar
     9     3     4   ar
    10     4     5   ar
    11     5     7    1
    12     7     8   ar
    13     8     9   ar
    14     9    10   ar
    15    10    11   ar
    16    11    12   ar
    17    12    13    1
    18    13    14    1
    19    14    15    1
    20    14    16    1
    21    14    17    1
    22     5     6   ar
    23    20    21   ar
    24    21    22   ar
    25    22    18   ar
    26     6     1   ar
    27    12     7   ar
    28    23    26    1
    29    23    27    1
@<TRIPOS>MOLECULE
*****
 27 29 0 0 0
SMALL
GASTEIGER

@<TRIPOS>ATOM
      1 C          62.9546   84.5072   11.6456 C.ar    1  UNL1        0.0182
      2 C          63.8758   83.6719   10.8067 C.ar    1  UNL1        0.0015
      3 C          63.8680   83.8161    9.3137 C.ar    1  UNL1        0.0001
      4 C          62.9390   84.7955    8.6596 C.ar    1  UNL1        0.0001
      5 C          62.0179   85.6308    9.4985 C.ar    1  UNL1        0.0030
      6 C          62.0257   85.4866   10.9915 C.ar    1  UNL1        0.0016
      7 C          61.0890   86.6102    8.8444 C.ar    1  UNL1        0.0343
      8 C          60.0369   86.1248    7.8918 C.ar    1  UNL1        0.0030
      9 C          59.1080   87.1042    7.2377 C.ar    1  UNL1        0.0002
     10 C          59.2311   88.5690    7.5363 C.ar    1  UNL1        0.0031
     11 C          60.2831   89.0544    8.4889 C.ar    1  UNL1        0.0372
     12 C          61.2121   88.0750    9.1430 C.ar    1  UNL1        0.1467
     13 O          62.2641   88.5604   10.0957 O.3     1  UNL1       -0.4045
     14 C          62.0898   89.8731   10.8002 C.3     1  UNL1        0.5753
     15 F          61.9154   91.1858   11.5048 F       1  UNL1       -0.1328
     16 F          61.1237   89.2335   11.7528 F       1  UNL1       -0.1328
     17 F          63.0559   90.5127    9.8476 F       1  UNL1       -0.1328
     18 C          62.7651   84.8581   15.5066 C.ar    1  UNL1        0.1638
     19 N          62.6285   85.4382   14.1300 N.ar    1  UNL1       -0.2337
     20 C          62.9624   84.3630   13.1387 C.ar    1  UNL1        0.0885
     21 C          63.3054   83.1186   13.9026 C.ar    1  UNL1        0.0561
     22 S          63.1835   83.4245   15.3660 S.2     1  UNL1       -0.0615
     23 N          63.6547   85.7899   17.7628 N.am    1  UNL1       -0.3236
     24 C          62.5255   85.5842   16.7970 C.2     1  UNL1        0.2667
     25 O          61.1567   86.1046   17.1218 O.2     1  UNL1       -0.2682
     26 H          63.4974   86.2664   18.6098 H       1  UNL1        0.1453
     27 H          64.5531   85.4483   17.5496 H       1  UNL1        0.1453
@<TRIPOS>BOND
     1    23    24   am
     2    24    25    2
     3    24    18    1
     4    18    19   ar
     5    19    20   ar
     6    20     1    1
     7     1     2   ar
     8     2     3   ar
     9     3     4   ar
    10     4     5   ar
    11     5     7    1
    12     7     8   ar
    13     8     9   ar
    14     9    10   ar
    15    10    11   ar
    16    11    12   ar
    17    12    13    1
    18    13    14    1
    19    14    15    1
    20    14    16    1
    21    14    17    1
    22     5     6   ar
    23    20    21   ar
    24    21    22   ar
    25    22    18   ar
    26     6     1   ar
    27    12     7   ar
    28    23    26    1
    29    23    27    1
@<TRIPOS>MOLECULE
*****
 27 29 0 0 0
SMALL
GASTEIGER

@<TRIPOS>ATOM
      1 C          62.6175   89.2984   12.1341 C.ar    1  UNL1        0.0182
      2 C          61.2529   89.6838   11.6452 C.ar    1  UNL1        0.0015
      3 C          60.3541   88.6484   11.0369 C.ar    1  UNL1        0.0001
      4 C          60.8200   87.2276   10.9176 C.ar    1  UNL1        0.0001
      5 C          62.1847   86.8422   11.4065 C.ar    1  UNL1        0.0030
      6 C          63.0834   87.8776   12.0148 C.ar    1  UNL1        0.0016
      7 C          62.6506   85.4214   11.2872 C.ar    1  UNL1        0.0343
      8 C          62.7870   84.5712   12.5154 C.ar    1  UNL1        0.0030
      9 C          63.2529   83.1504   12.3961 C.ar    1  UNL1        0.0002
     10 C          63.5824   82.5798   11.0486 C.ar    1  UNL1        0.0031
     11 C          63.4460   83.4300    9.8204 C.ar    1  UNL1        0.0372
     12 C          62.9800   84.8508    9.9397 C.ar    1  UNL1        0.1467
     13 O          62.8436   85.7010    8.7114 O.3     1  UNL1       -0.4045
     14 C          61.9758   85.2449    7.5761 C.3     1  UNL1        0.5753
     15 F          61.1080   84.7887    6.4408 F       1  UNL1       -0.1328
     16 F          63.1837   84.7040    6.8702 F       1  UNL1       -0.1328
     17 F          60.7680   85.7858    8.2821 F       1  UNL1       -0.1328
     18 C          64.7011   91.6967   14.3641 C.ar    1  UNL1        0.1638
     19 N          63.7237   90.5695   14.2092 N.ar    1  UNL1       -0.2337
     20 C          63.5164   90.3339   12.7424 C.ar    1  UNL1        0.0885
     21 C          64.3657   91.3155   11.9907 C.ar    1  UNL1        0.0561
     22 S          65.0979   92.1578   12.9930 S.2     1  UNL1       -0.0615
     23 N          66.5723   92.8513   15.7481 N.am    1  UNL1       -0.3236
     24 C          65.1950   92.2633   15.6622 C.2     1  UNL1        0.2667
     25 O          64.3117   92.2419   16.8743 O.2     1  UNL1       -0.2682
     26 H          66.8965   93.2232   16.6001 H       1  UNL1        0.1453
     27 H          67.1521   92.8653   14.9526 H       1  UNL1        0.1453
@<TRIPOS>BOND
     1    23    24   am
     2    24    25    2
     3    24    18    1
     4    18    19   ar
     5    19    20   ar
     6    20     1    1
     7     1     2   ar
     8     2     3   ar
     9     3     4   ar
    10     4     5   ar
    11     5     7    1
    12     7     8   ar
    13     8     9   ar
    14     9    10   ar
    15    10    11   ar
    16    11    12   ar
    17    12    13    1
    18    13    14    1
    19    14    15    1
    20    14    16    1
    21    14    17    1
    22     5     6   ar
    23    20    21   ar
    24    21    22   ar
    25    22    18   ar
    26     6     1   ar
    27    12     7   ar
    28    23    26    1
    29    23    27    1
