@<TRIPOS>MOLECULE
*****
 33 38 0 0 0
SMALL
GASTEIGER

@<TRIPOS>ATOM
      1 C          64.4661   90.5608   14.7790 C.3     1  UNL1        0.1120
      2 C          63.8683   91.3519   13.6535 C.3     1  UNL1        0.1063
      3 N          65.1892   92.0250   13.4250 N.3     1  UNL1       -0.1544
      4 C          65.7870   91.2338   14.5506 C.3     1  UNL1        0.1063
      5 O          63.6512   89.9018   17.1563 O.2     1  UNL1       -0.2748
      6 C          63.9547   89.5255   15.7364 C.2     1  UNL1        0.2280
      7 N          63.7469   88.1137   15.2738 N.am    1  UNL1       -0.2794
      8 C          63.2441   86.9761   16.1124 C.3     1  UNL1        0.0952
      9 C          63.1918   85.7511   15.2484 C.3     1  UNL1        0.0429
     10 C          62.8488   84.2910   15.2326 C.3     1  UNL1        0.0925
     11 N          63.1072   83.7690   13.8503 N.pl3   1  UNL1       -0.3073
     12 C          63.6100   84.9066   13.0118 C.3     1  UNL1        0.0925
     13 C          63.6623   86.1316   13.8758 C.3     1  UNL1        0.0429
     14 C          64.0053   87.5918   13.8915 C.3     1  UNL1        0.0952
     15 C          62.8994   82.3573   13.3878 C.ar    1  UNL1        0.0510
     16 C          62.1739   81.3800   14.2645 C.ar    1  UNL1        0.0352
     17 C          61.9661   79.9683   13.8020 C.ar    1  UNL1        0.1002
     18 N          62.4837   79.5339   12.4628 N.ar    1  UNL1       -0.2422
     19 C          63.2091   80.5112   11.5861 C.ar    1  UNL1        0.1002
     20 C          63.4170   81.9230   12.0486 C.ar    1  UNL1        0.0352
     21 S          65.7005   93.0603   12.4676 S.O2    1  UNL1        0.0633
     22 O          64.9307   92.4120   11.3554 O.2     1  UNL1       -0.1528
     23 O          66.4703   93.7086   13.5799 O.2     1  UNL1       -0.1528
     24 C          66.2118   94.0956   11.5102 C.ar    1  UNL1        0.1223
     25 C          65.8697   95.5415   11.7160 C.ar    1  UNL1        0.0199
     26 C          66.3810   96.5768   10.7586 C.ar    1  UNL1        0.0014
     27 C          67.2345   96.1663    9.5954 C.ar    1  UNL1        0.0016
     28 C          67.5767   94.7204    9.3896 C.ar    1  UNL1        0.0205
     29 C          68.4301   94.3098    8.2264 C.ar    1  UNL1        0.0989
     30 N          68.7723   92.8640    8.0207 N.ar    1  UNL1       -0.2423
     31 C          68.2609   91.8287    8.9781 C.ar    1  UNL1        0.0989
     32 C          67.4075   92.2392   10.1412 C.ar    1  UNL1        0.0220
     33 C          67.0654   93.6850   10.3470 C.ar    1  UNL1        0.0217
@<TRIPOS>BOND
     1     5     6    2
     2     6     1    1
     3     1     2    1
     4     2     3    1
     5     3    21    1
     6    21    22    2
     7    21    23    2
     8    21    24    1
     9    24    25   ar
    10    25    26   ar
    11    26    27   ar
    12    27    28   ar
    13    28    29   ar
    14    29    30   ar
    15    30    31   ar
    16    31    32   ar
    17    32    33   ar
    18     3     4    1
    19     6     7   am
    20     7     8    1
    21     8     9    1
    22     9    10    1
    23    10    11    1
    24    11    15    1
    25    15    16   ar
    26    16    17   ar
    27    17    18   ar
    28    18    19   ar
    29    19    20   ar
    30    11    12    1
    31    12    13    1
    32    13    14    1
    33     4     1    1
    34    14     7    1
    35    33    24   ar
    36    13     9    1
    37    33    28   ar
    38    20    15   ar
@<TRIPOS>MOLECULE
*****
 33 38 0 0 0
SMALL
GASTEIGER

@<TRIPOS>ATOM
      1 C          59.3690   89.5556    7.0728 C.3     1  UNL1        0.1120
      2 C          60.2734   89.8590    8.2303 C.3     1  UNL1        0.1063
      3 N          60.3528   88.3961    8.5518 N.3     1  UNL1       -0.1544
      4 C          59.4484   88.0926    7.3942 C.3     1  UNL1        0.1063
      5 O          57.1767   90.4752    6.0249 O.2     1  UNL1       -0.2748
      6 C          58.6734   90.3755    6.0269 C.2     1  UNL1        0.2280
      7 N          59.4745   91.0958    4.9830 N.am    1  UNL1       -0.2794
      8 C          58.9213   91.9486    3.8800 C.3     1  UNL1        0.0952
      9 C          60.0742   92.4696    3.0742 C.3     1  UNL1        0.0429
     10 C          60.4449   93.3186    1.8945 C.3     1  UNL1        0.0925
     11 N          61.9397   93.3124    1.7704 N.pl3   1  UNL1       -0.3073
     12 C          62.4929   92.4595    2.8734 C.3     1  UNL1        0.0925
     13 C          61.3400   91.9386    3.6792 C.3     1  UNL1        0.0429
     14 C          60.9693   91.0896    4.8589 C.3     1  UNL1        0.0952
     15 C          62.7407   94.0326    0.7266 C.ar    1  UNL1        0.0510
     16 C          62.0583   94.6029   -0.4814 C.ar    1  UNL1        0.0352
     17 C          62.8593   95.3232   -1.5252 C.ar    1  UNL1        0.1002
     18 N          64.3427   95.4731   -1.3612 N.ar    1  UNL1       -0.2422
     19 C          65.0252   94.9029   -0.1533 C.ar    1  UNL1        0.1002
     20 C          64.2242   94.1826    0.8906 C.ar    1  UNL1        0.0352
     21 S          61.0485   87.5762    9.5977 S.O2    1  UNL1        0.0633
     22 O          62.1627   87.2926    8.6342 O.2     1  UNL1       -0.1528
     23 O          59.9343   87.8598   10.5611 O.2     1  UNL1       -0.1528
     24 C          61.7441   86.7562   10.6435 C.ar    1  UNL1        0.1223
     25 C          61.6621   85.2592   10.6001 C.ar    1  UNL1        0.0199
     26 C          62.3578   84.4392   11.6459 C.ar    1  UNL1        0.0014
     27 C          63.1355   85.1164   12.7352 C.ar    1  UNL1        0.0016
     28 C          63.2175   86.6136   12.7787 C.ar    1  UNL1        0.0205
     29 C          63.9952   87.2908   13.8680 C.ar    1  UNL1        0.0989
     30 N          64.0772   88.7879   13.9115 N.ar    1  UNL1       -0.2423
     31 C          63.3815   89.6078   12.8656 C.ar    1  UNL1        0.0989
     32 C          62.6038   88.9306   11.7763 C.ar    1  UNL1        0.0220
     33 C          62.5218   87.4335   11.7329 C.ar    1  UNL1        0.0217
@<TRIPOS>BOND
     1     5     6    2
     2     6     1    1
     3     1     2    1
     4     2     3    1
     5     3    21    1
     6    21    22    2
     7    21    23    2
     8    21    24    1
     9    24    25   ar
    10    25    26   ar
    11    26    27   ar
    12    27    28   ar
    13    28    29   ar
    14    29    30   ar
    15    30    31   ar
    16    31    32   ar
    17    32    33   ar
    18     3     4    1
    19     6     7   am
    20     7     8    1
    21     8     9    1
    22     9    10    1
    23    10    11    1
    24    11    15    1
    25    15    16   ar
    26    16    17   ar
    27    17    18   ar
    28    18    19   ar
    29    19    20   ar
    30    11    12    1
    31    12    13    1
    32    13    14    1
    33     4     1    1
    34    14     7    1
    35    33    24   ar
    36    13     9    1
    37    33    28   ar
    38    20    15   ar
@<TRIPOS>MOLECULE
*****
 33 38 0 0 0
SMALL
GASTEIGER

@<TRIPOS>ATOM
      1 C          59.5262   88.8161    7.6354 C.3     1  UNL1        0.1120
      2 C          60.3608   89.1887    8.8248 C.3     1  UNL1        0.1063
      3 N          60.6189   87.7367    9.0986 N.3     1  UNL1       -0.1544
      4 C          59.7843   87.3640    7.9092 C.3     1  UNL1        0.1063
      5 O          57.2567   89.4909    6.5661 O.2     1  UNL1       -0.2748
      6 C          58.7536   89.5794    6.6008 C.2     1  UNL1        0.2280
      7 N          59.4780   90.4312    5.6009 N.am    1  UNL1       -0.2794
      8 C          58.8437   91.2471    4.5137 C.3     1  UNL1        0.0952
      9 C          59.9375   91.9368    3.7535 C.3     1  UNL1        0.0429
     10 C          60.2215   92.8672    2.6118 C.3     1  UNL1        0.0925
     11 N          61.7074   93.0527    2.5236 N.pl3   1  UNL1       -0.3073
     12 C          62.3417   92.2369    3.6108 C.3     1  UNL1        0.0925
     13 C          61.2479   91.5472    4.3710 C.3     1  UNL1        0.0429
     14 C          60.9639   90.6167    5.5127 C.3     1  UNL1        0.0952
     15 C          62.4317   93.9045    1.5237 C.ar    1  UNL1        0.0510
     16 C          63.8728   94.2580    1.7436 C.ar    1  UNL1        0.0352
     17 C          64.5971   95.1097    0.7438 C.ar    1  UNL1        0.1002
     18 N          63.8804   95.6081   -0.4760 N.ar    1  UNL1       -0.2422
     19 C          62.4394   95.2547   -0.6960 C.ar    1  UNL1        0.1002
     20 C          61.7150   94.4029    0.3039 C.ar    1  UNL1        0.0352
     21 S          61.3915   86.9734   10.1332 S.O2    1  UNL1        0.0633
     22 O          62.4234   86.6214    9.1030 O.2     1  UNL1       -0.1528
     23 O          60.3597   87.3254   11.1635 O.2     1  UNL1       -0.1528
     24 C          62.1641   86.2101   11.1679 C.ar    1  UNL1        0.1223
     25 C          62.1907   84.7108   11.1293 C.ar    1  UNL1        0.0199
     26 C          62.9633   83.9476   12.1640 C.ar    1  UNL1        0.0014
     27 C          63.7094   84.6835   13.2371 C.ar    1  UNL1        0.0016
     28 C          63.6829   86.1828   13.2757 C.ar    1  UNL1        0.0205
     29 C          64.4290   86.9188   14.3488 C.ar    1  UNL1        0.0989
     30 N          64.4024   88.4180   14.3873 N.ar    1  UNL1       -0.2423
     31 C          63.6298   89.1813   13.3527 C.ar    1  UNL1        0.0989
     32 C          62.8837   88.4454   12.2796 C.ar    1  UNL1        0.0220
     33 C          62.9102   86.9461   12.2410 C.ar    1  UNL1        0.0217
@<TRIPOS>BOND
     1     5     6    2
     2     6     1    1
     3     1     2    1
     4     2     3    1
     5     3    21    1
     6    21    22    2
     7    21    23    2
     8    21    24    1
     9    24    25   ar
    10    25    26   ar
    11    26    27   ar
    12    27    28   ar
    13    28    29   ar
    14    29    30   ar
    15    30    31   ar
    16    31    32   ar
    17    32    33   ar
    18     3     4    1
    19     6     7   am
    20     7     8    1
    21     8     9    1
    22     9    10    1
    23    10    11    1
    24    11    15    1
    25    15    16   ar
    26    16    17   ar
    27    17    18   ar
    28    18    19   ar
    29    19    20   ar
    30    11    12    1
    31    12    13    1
    32    13    14    1
    33     4     1    1
    34    14     7    1
    35    33    24   ar
    36    13     9    1
    37    33    28   ar
    38    20    15   ar
@<TRIPOS>MOLECULE
*****
 33 38 0 0 0
SMALL
GASTEIGER

@<TRIPOS>ATOM
      1 C          59.2371   89.9360    6.5897 C.3     1  UNL1        0.1120
      2 C          59.8132   90.1528    7.9574 C.3     1  UNL1        0.1063
      3 N          60.0629   88.6793    8.0859 N.3     1  UNL1       -0.1544
      4 C          59.4867   88.4625    6.7180 C.3     1  UNL1        0.1063
      5 O          57.1710   91.0482    5.4741 O.2     1  UNL1       -0.2748
      6 C          58.6531   90.8247    5.5317 C.2     1  UNL1        0.2280
      7 N          59.5513   91.4898    4.5313 N.am    1  UNL1       -0.2794
      8 C          59.1142   92.4003    3.4222 C.3     1  UNL1        0.0952
      9 C          60.3370   92.8345    2.6697 C.3     1  UNL1        0.0429
     10 C          60.8227   93.6655    1.5192 C.3     1  UNL1        0.0925
     11 N          62.3156   93.5370    1.4523 N.pl3   1  UNL1       -0.3073
     12 C          62.7527   92.6265    2.5614 C.3     1  UNL1        0.0925
     13 C          61.5299   92.1923    3.3138 C.3     1  UNL1        0.0429
     14 C          61.0443   91.3613    4.4643 C.3     1  UNL1        0.0952
     15 C          63.2138   94.2021    0.4519 C.ar    1  UNL1        0.0510
     16 C          64.2562   95.1778    0.9119 C.ar    1  UNL1        0.0352
     17 C          65.1543   95.8429   -0.0885 C.ar    1  UNL1        0.1002
     18 N          65.0101   95.5325   -1.5490 N.ar    1  UNL1       -0.2422
     19 C          63.9678   94.5569   -2.0090 C.ar    1  UNL1        0.1002
     20 C          63.0696   93.8917   -1.0086 C.ar    1  UNL1        0.0352
     21 S          60.6469   87.7907    9.1438 S.O2    1  UNL1        0.0633
     22 O          61.7414   88.7891    9.3783 O.2     1  UNL1       -0.1528
     23 O          59.5523   86.7922    8.9093 O.2     1  UNL1       -0.1528
     24 C          61.2308   86.9020   10.2018 C.ar    1  UNL1        0.1223
     25 C          60.9087   87.1444   11.6466 C.ar    1  UNL1        0.0199
     26 C          61.4926   86.2558   12.7046 C.ar    1  UNL1        0.0014
     27 C          62.3987   85.1248   12.3178 C.ar    1  UNL1        0.0016
     28 C          62.7209   84.8823   10.8729 C.ar    1  UNL1        0.0205
     29 C          63.6271   83.7513   10.4861 C.ar    1  UNL1        0.0989
     30 N          63.9492   83.5089    9.0414 N.ar    1  UNL1       -0.2423
     31 C          63.3653   84.3975    7.9834 C.ar    1  UNL1        0.0989
     32 C          62.4591   85.5285    8.3702 C.ar    1  UNL1        0.0220
     33 C          62.1370   85.7709    9.8149 C.ar    1  UNL1        0.0217
@<TRIPOS>BOND
     1     5     6    2
     2     6     1    1
     3     1     2    1
     4     2     3    1
     5     3    21    1
     6    21    22    2
     7    21    23    2
     8    21    24    1
     9    24    25   ar
    10    25    26   ar
    11    26    27   ar
    12    27    28   ar
    13    28    29   ar
    14    29    30   ar
    15    30    31   ar
    16    31    32   ar
    17    32    33   ar
    18     3     4    1
    19     6     7   am
    20     7     8    1
    21     8     9    1
    22     9    10    1
    23    10    11    1
    24    11    15    1
    25    15    16   ar
    26    16    17   ar
    27    17    18   ar
    28    18    19   ar
    29    19    20   ar
    30    11    12    1
    31    12    13    1
    32    13    14    1
    33     4     1    1
    34    14     7    1
    35    33    24   ar
    36    13     9    1
    37    33    28   ar
    38    20    15   ar
@<TRIPOS>MOLECULE
*****
 33 38 0 0 0
SMALL
GASTEIGER

@<TRIPOS>ATOM
      1 C          63.4609   87.6444   15.9684 C.3     1  UNL1        0.1120
      2 C          63.5058   89.0484   16.4941 C.3     1  UNL1        0.1063
      3 N          64.3417   89.4617   15.3192 N.3     1  UNL1       -0.1544
      4 C          64.2969   88.0575   14.7934 C.3     1  UNL1        0.1063
      5 O          62.2262   86.2686   17.7939 O.2     1  UNL1       -0.2748
      6 C          62.8381   86.3593   16.4274 C.2     1  UNL1        0.2280
      7 N          62.8272   85.1649   15.5199 N.am    1  UNL1       -0.2794
      8 C          62.2441   83.8203   15.8392 C.3     1  UNL1        0.0952
      9 C          62.4540   82.9299   14.6505 C.3     1  UNL1        0.0429
     10 C          62.2234   81.5486   14.1132 C.3     1  UNL1        0.0925
     11 N          62.7937   81.4892   12.7271 N.pl3   1  UNL1       -0.3073
     12 C          63.3769   82.8338   12.4078 C.3     1  UNL1        0.0925
     13 C          63.1669   83.7242   13.5965 C.3     1  UNL1        0.0429
     14 C          63.3976   85.1056   14.1339 C.3     1  UNL1        0.0952
     15 C          62.7828   80.2948   11.8197 C.ar    1  UNL1        0.0510
     16 C          62.5570   78.9244   12.3863 C.ar    1  UNL1        0.0352
     17 C          62.5461   77.7301   11.4789 C.ar    1  UNL1        0.1002
     18 N          62.7611   77.9061   10.0049 N.ar    1  UNL1       -0.2422
     19 C          62.9869   79.2765    9.4382 C.ar    1  UNL1        0.1002
     20 C          62.9978   80.4709   10.3456 C.ar    1  UNL1        0.0352
     21 S          64.9645   90.7467   14.8601 S.O2    1  UNL1        0.0633
     22 O          66.2894   90.0565   14.7253 O.2     1  UNL1       -0.1528
     23 O          63.6397   91.4370   14.9950 O.2     1  UNL1       -0.1528
     24 C          65.5873   92.0318   14.4011 C.ar    1  UNL1        0.1223
     25 C          66.3710   92.8719   15.3654 C.ar    1  UNL1        0.0199
     26 C          66.9938   94.1570   14.9064 C.ar    1  UNL1        0.0014
     27 C          66.8330   94.6019   13.4830 C.ar    1  UNL1        0.0016
     28 C          66.0493   93.7618   12.5185 C.ar    1  UNL1        0.0205
     29 C          65.8885   94.2067   11.0951 C.ar    1  UNL1        0.0989
     30 N          65.1048   93.3666   10.1308 N.ar    1  UNL1       -0.2423
     31 C          64.4820   92.0815   10.5898 C.ar    1  UNL1        0.0989
     32 C          64.6428   91.6366   12.0132 C.ar    1  UNL1        0.0220
     33 C          65.4265   92.4767   12.9776 C.ar    1  UNL1        0.0217
@<TRIPOS>BOND
     1     5     6    2
     2     6     1    1
     3     1     2    1
     4     2     3    1
     5     3    21    1
     6    21    22    2
     7    21    23    2
     8    21    24    1
     9    24    25   ar
    10    25    26   ar
    11    26    27   ar
    12    27    28   ar
    13    28    29   ar
    14    29    30   ar
    15    30    31   ar
    16    31    32   ar
    17    32    33   ar
    18     3     4    1
    19     6     7   am
    20     7     8    1
    21     8     9    1
    22     9    10    1
    23    10    11    1
    24    11    15    1
    25    15    16   ar
    26    16    17   ar
    27    17    18   ar
    28    18    19   ar
    29    19    20   ar
    30    11    12    1
    31    12    13    1
    32    13    14    1
    33     4     1    1
    34    14     7    1
    35    33    24   ar
    36    13     9    1
    37    33    28   ar
    38    20    15   ar
