@<TRIPOS>MOLECULE
*****
 38 42 0 0 0
SMALL
GASTEIGER

@<TRIPOS>ATOM
      1 C          63.1756   90.2230   12.7687 C.3     1  UNL1        0.1225
      2 O          62.7426   90.9352   11.5216 O.3     1  UNL1       -0.3559
      3 C          62.3429   90.1481   10.3089 C.3     1  UNL1        0.1441
      4 C          62.3762   88.6489   10.3432 C.3     1  UNL1        0.0589
      5 C          62.8092   87.9367   11.5903 C.3     1  UNL1        0.1466
      6 C          62.8426   86.4375   11.6246 C.ar    1  UNL1        0.0618
      7 C          62.4429   85.6504   10.4119 C.ar    1  UNL1        0.1407
      8 F          61.9716   86.0221    9.0371 F       1  UNL1       -0.2043
      9 C          62.4762   84.1512   10.4462 C.ar    1  UNL1        0.0319
     10 C          62.9092   83.4390   11.6933 C.ar    1  UNL1        0.0351
     11 C          63.3089   84.2260   12.9061 C.ar    1  UNL1        0.1737
     12 F          63.7419   83.5139   14.1532 F       1  UNL1       -0.2010
     13 C          63.2755   85.7253   12.8717 C.ar    1  UNL1        0.1655
     14 O          63.6752   86.5123   14.0846 O.3     1  UNL1       -0.4732
     15 C          63.6419   88.0116   14.0502 C.3     1  UNL1        0.2098
     16 C          63.2089   88.7238   12.8030 C.3     1  UNL1        0.0957
     17 S          62.4096   87.1497   10.3776 S.O2    1  UNL1        0.0094
     18 O          62.8723   87.1986    9.7303 O.2     1  UNL1       -0.1684
     19 O          61.1496   86.4519   10.7967 O.2     1  UNL1       -0.1684
     20 C          62.0099   86.3626    9.1648 C.ar    1  UNL1        0.1059
     21 C          60.5690   86.3003    8.7524 C.ar    1  UNL1        0.0192
     22 C          60.1693   85.5132    7.5396 C.ar    1  UNL1        0.0127
     23 C          61.2105   84.7884    6.7393 C.ar    1  UNL1        0.0578
     24 CL         60.8108   84.0013    5.5265 Cl      1  UNL1       -0.0822
     25 C          62.6514   84.8507    7.1517 C.ar    1  UNL1        0.0127
     26 C          63.0510   85.6377    8.3644 C.ar    1  UNL1        0.0192
     27 C          63.5753   91.0100   13.9815 C.3     1  UNL1        0.0550
     28 C          64.9958   90.9775   14.4621 C.3     1  UNL1        0.1540
     29 O          67.0659   91.3322   14.7602 O.2     1  UNL1       -0.1724
     30 S          65.9850   91.9804   13.9468 S.O2    1  UNL1        0.0020
     31 O          64.9042   92.6286   13.1334 O.2     1  UNL1       -0.1724
     32 C          66.9743   92.9834   13.4315 C.3     1  UNL1        0.2663
     33 C          66.7354   93.6654   12.1171 C.2     1  UNL1        0.3161
     34 N          67.2036   93.1836   10.7759 N.2     1  UNL1       -0.0633
     35 C          66.7439   94.1693    9.7429 C.3     1  UNL1        0.3130
     36 C          65.9915   95.2603   10.4457 C.3     1  UNL1        0.2575
     37 N          65.9863   94.9488   11.9129 N.pl3   1  UNL1       -0.2175
     38 H          65.5651   95.4915   12.6182 H       1  UNL1        0.2921
@<TRIPOS>BOND
     1    29    30    2
     2    30    31    2
     3    30    28    1
     4    28    27    1
     5     1    27    1
     6     1     2    1
     7     2     3    1
     8     3     4    1
     9     4     5    1
    10     5    17    1
    11    17    18    2
    12    17    19    2
    13    17    20    1
    14    20    21   ar
    15    21    22   ar
    16    22    23   ar
    17    23    24    1
    18    23    25   ar
    19    25    26   ar
    20     5     6    1
    21     6     7   ar
    22     7     8    1
    23     7     9   ar
    24     9    10   ar
    25    10    11   ar
    26    11    12    1
    27    11    13   ar
    28    13    14    1
    29    14    15    1
    30    16    15    1
    31    30    32    1
    32    32    33    1
    33    33    34    2
    34    34    35    1
    35    35    36    1
    36    36    37    1
    37    16     1    1
    38    37    33    1
    39    16     5    1
    40    26    20   ar
    41    13     6   ar
    42    37    38    1
@<TRIPOS>MOLECULE
*****
 38 42 0 0 0
SMALL
GASTEIGER

@<TRIPOS>ATOM
      1 C          59.5888   88.5733    7.8367 C.3     1  UNL1        0.1225
      2 O          59.3310   87.2039    7.2814 O.3     1  UNL1       -0.3559
      3 C          59.9629   86.0037    7.9219 C.3     1  UNL1        0.1441
      4 C          60.8525   86.1729    9.1177 C.3     1  UNL1        0.0589
      5 C          61.1103   87.5422    9.6730 C.3     1  UNL1        0.1466
      6 C          62.0000   87.7113   10.8688 C.ar    1  UNL1        0.0618
      7 C          62.6318   86.5111   11.5092 C.ar    1  UNL1        0.1407
      8 F          62.5943   85.0383   11.2269 F       1  UNL1       -0.2043
      9 C          63.5215   86.6803   12.7050 C.ar    1  UNL1        0.0319
     10 C          63.7793   88.0496   13.2603 C.ar    1  UNL1        0.0351
     11 C          63.1474   89.2498   12.6199 C.ar    1  UNL1        0.1737
     12 F          63.4052   90.6192   13.1752 F       1  UNL1       -0.2010
     13 C          62.2578   89.0807   11.4241 C.ar    1  UNL1        0.1655
     14 O          61.6259   90.2810   10.7836 O.3     1  UNL1       -0.4732
     15 C          60.7362   90.1118    9.5879 C.3     1  UNL1        0.2098
     16 C          60.4784   88.7424    9.0325 C.3     1  UNL1        0.0957
     17 S          61.7422   86.3420   10.3134 S.O2    1  UNL1        0.0094
     18 O          61.4284   86.0727   10.9950 O.2     1  UNL1       -0.1684
     19 O          62.8700   85.9891    9.3895 O.2     1  UNL1       -0.1684
     20 C          62.3741   85.1417   10.9539 C.ar    1  UNL1        0.1059
     21 C          61.9114   84.6815   12.3044 C.ar    1  UNL1        0.0192
     22 C          62.5433   83.4812   12.9449 C.ar    1  UNL1        0.0127
     23 C          63.6380   82.7413   12.2347 C.ar    1  UNL1        0.0578
     24 CL         64.2699   81.5411   12.8751 Cl      1  UNL1       -0.0822
     25 C          64.1007   83.2016   10.8841 C.ar    1  UNL1        0.0127
     26 C          63.4687   84.4018   10.2437 C.ar    1  UNL1        0.0192
     27 C          58.9569   89.7736    7.1963 C.3     1  UNL1        0.0550
     28 C          58.9811   89.9275    5.7044 C.3     1  UNL1        0.1540
     29 O          57.7050   91.5066    5.0899 O.2     1  UNL1       -0.1724
     30 S          59.1880   91.2817    5.0935 S.O2    1  UNL1        0.0020
     31 O          60.6710   91.0568    5.0970 O.2     1  UNL1       -0.1724
     32 C          59.3948   92.6360    4.4825 C.3     1  UNL1        0.2663
     33 C          60.0477   92.7604    3.1378 C.2     1  UNL1        0.3161
     34 N          59.3647   93.1416    1.8579 N.2     1  UNL1       -0.0633
     35 C          60.3931   93.1421    0.7660 C.3     1  UNL1        0.3130
     36 C          61.7118   92.7612    1.3710 C.3     1  UNL1        0.2575
     37 N          61.4983   92.5253    2.8369 N.pl3   1  UNL1       -0.2175
     38 H          62.1890   92.2623    3.4873 H       1  UNL1        0.2921
@<TRIPOS>BOND
     1    29    30    2
     2    30    31    2
     3    30    28    1
     4    28    27    1
     5     1    27    1
     6     1     2    1
     7     2     3    1
     8     3     4    1
     9     4     5    1
    10     5    17    1
    11    17    18    2
    12    17    19    2
    13    17    20    1
    14    20    21   ar
    15    21    22   ar
    16    22    23   ar
    17    23    24    1
    18    23    25   ar
    19    25    26   ar
    20     5     6    1
    21     6     7   ar
    22     7     8    1
    23     7     9   ar
    24     9    10   ar
    25    10    11   ar
    26    11    12    1
    27    11    13   ar
    28    13    14    1
    29    14    15    1
    30    16    15    1
    31    30    32    1
    32    32    33    1
    33    33    34    2
    34    34    35    1
    35    35    36    1
    36    36    37    1
    37    16     1    1
    38    37    33    1
    39    16     5    1
    40    26    20   ar
    41    13     6   ar
    42    37    38    1
@<TRIPOS>MOLECULE
*****
 38 42 0 0 0
SMALL
GASTEIGER

@<TRIPOS>ATOM
      1 C          63.8774   89.2439   14.2401 C.3     1  UNL1        0.1225
      2 O          64.5751   88.2453   15.1153 O.3     1  UNL1       -0.3559
      3 C          64.5590   86.7899   14.7528 C.3     1  UNL1        0.1441
      4 C          63.8453   86.3330   13.5152 C.3     1  UNL1        0.0589
      5 C          63.1475   87.3316   12.6399 C.3     1  UNL1        0.1466
      6 C          62.4338   86.8747   11.4023 C.ar    1  UNL1        0.0618
      7 C          62.4177   85.4193   11.0398 C.ar    1  UNL1        0.1407
      8 F          62.9928   84.1831   11.6655 F       1  UNL1       -0.2043
      9 C          61.7039   84.9624    9.8022 C.ar    1  UNL1        0.0319
     10 C          61.0062   85.9610    8.9270 C.ar    1  UNL1        0.0351
     11 C          61.0223   87.4164    9.2894 C.ar    1  UNL1        0.1737
     12 F          60.3246   88.4151    8.4142 F       1  UNL1       -0.2010
     13 C          61.7361   87.8733   10.5271 C.ar    1  UNL1        0.1655
     14 O          61.7521   89.3288   10.8895 O.3     1  UNL1       -0.4732
     15 C          62.4659   89.7857   12.1272 C.3     1  UNL1        0.2098
     16 C          63.1636   88.7870   13.0024 C.3     1  UNL1        0.0957
     17 S          63.1315   85.8762   12.2775 S.O2    1  UNL1        0.0094
     18 O          63.5115   85.6515   11.6137 O.2     1  UNL1       -0.1684
     19 O          62.3335   85.2375   13.3755 O.2     1  UNL1       -0.1684
     20 C          63.1154   84.4206   11.9151 C.ar    1  UNL1        0.1059
     21 C          62.1694   83.4855   12.6083 C.ar    1  UNL1        0.0192
     22 C          62.1533   82.0300   12.2458 C.ar    1  UNL1        0.0127
     23 C          63.0833   81.5097   11.1902 C.ar    1  UNL1        0.0578
     24 CL         63.0672   80.0543   10.8277 Cl      1  UNL1       -0.0822
     25 C          64.0293   82.4449   10.4970 C.ar    1  UNL1        0.0127
     26 C          64.0454   83.9003   10.8594 C.ar    1  UNL1        0.0192
     27 C          63.8934   90.6994   14.6025 C.3     1  UNL1        0.0550
     28 C          65.0954   91.2911   15.2772 C.3     1  UNL1        0.1540
     29 O          64.9152   92.3526   13.4494 O.2     1  UNL1       -0.1724
     30 S          65.8846   92.3683   14.5940 S.O2    1  UNL1        0.0020
     31 O          66.8540   92.3840   15.7385 O.2     1  UNL1       -0.1724
     32 C          66.6739   93.4455   13.9108 C.3     1  UNL1        0.2663
     33 C          66.6661   93.5465   12.4143 C.2     1  UNL1        0.3161
     34 N          67.4638   92.6977   11.4692 N.2     1  UNL1       -0.0633
     35 C          67.1499   93.1406   10.0708 C.3     1  UNL1        0.3130
     36 C          66.1582   94.2631   10.1517 C.3     1  UNL1        0.2575
     37 N          65.8592   94.5139   11.6000 N.pl3   1  UNL1       -0.2175
     38 H          65.2418   95.1941   11.9540 H       1  UNL1        0.2921
@<TRIPOS>BOND
     1    29    30    2
     2    30    31    2
     3    30    28    1
     4    28    27    1
     5     1    27    1
     6     1     2    1
     7     2     3    1
     8     3     4    1
     9     4     5    1
    10     5    17    1
    11    17    18    2
    12    17    19    2
    13    17    20    1
    14    20    21   ar
    15    21    22   ar
    16    22    23   ar
    17    23    24    1
    18    23    25   ar
    19    25    26   ar
    20     5     6    1
    21     6     7   ar
    22     7     8    1
    23     7     9   ar
    24     9    10   ar
    25    10    11   ar
    26    11    12    1
    27    11    13   ar
    28    13    14    1
    29    14    15    1
    30    16    15    1
    31    30    32    1
    32    32    33    1
    33    33    34    2
    34    34    35    1
    35    35    36    1
    36    36    37    1
    37    16     1    1
    38    37    33    1
    39    16     5    1
    40    26    20   ar
    41    13     6   ar
    42    37    38    1
@<TRIPOS>MOLECULE
*****
 38 42 0 0 0
SMALL
GASTEIGER

@<TRIPOS>ATOM
      1 C          62.0540   93.0335    1.1065 C.3     1  UNL1        0.1225
      2 O          61.0433   93.0742    2.2140 O.3     1  UNL1       -0.3559
      3 C          59.6194   93.4402    1.9168 C.3     1  UNL1        0.1441
      4 C          59.2062   93.7656    0.5120 C.3     1  UNL1        0.0589
      5 C          60.2169   93.7249   -0.5955 C.3     1  UNL1        0.1466
      6 C          59.8037   94.0503   -2.0003 C.ar    1  UNL1        0.0618
      7 C          58.3798   94.4163   -2.2975 C.ar    1  UNL1        0.1407
      8 F          57.1423   94.5523   -1.4606 F       1  UNL1       -0.2043
      9 C          57.9666   94.7417   -3.7023 C.ar    1  UNL1        0.0319
     10 C          58.9774   94.7010   -4.8099 C.ar    1  UNL1        0.0351
     11 C          60.4013   94.3350   -4.5126 C.ar    1  UNL1        0.1737
     12 F          61.4121   94.2944   -5.6202 F       1  UNL1       -0.2010
     13 C          60.8145   94.0097   -3.1078 C.ar    1  UNL1        0.1655
     14 O          62.2385   93.6437   -2.8106 O.3     1  UNL1       -0.4732
     15 C          62.6517   93.3183   -1.4058 C.3     1  UNL1        0.2098
     16 C          61.6409   93.3589   -0.2983 C.3     1  UNL1        0.0957
     17 S          58.7930   94.0909   -0.8928 S.O2    1  UNL1        0.0094
     18 O          58.6124   94.8640   -0.9648 O.2     1  UNL1       -0.1684
     19 O          58.0870   92.7696   -0.9692 O.2     1  UNL1       -0.1684
     20 C          57.3690   94.4569   -1.1900 C.ar    1  UNL1        0.1059
     21 C          56.3900   93.3944   -1.5934 C.ar    1  UNL1        0.0192
     22 C          54.9660   93.7603   -1.8906 C.ar    1  UNL1        0.0127
     23 C          54.5210   95.1889   -1.7845 C.ar    1  UNL1        0.0578
     24 CL         53.0971   95.5549   -2.0817 Cl      1  UNL1       -0.0822
     25 C          55.5000   96.2514   -1.3811 C.ar    1  UNL1        0.0127
     26 C          56.9239   95.8854   -1.0839 C.ar    1  UNL1        0.0192
     27 C          63.4781   92.6675    1.4037 C.3     1  UNL1        0.0550
     28 C          64.4032   93.6828    2.0065 C.3     1  UNL1        0.1540
     29 O          65.6542   94.0484    0.3328 O.2     1  UNL1       -0.1724
     30 S          64.7960   94.8991    1.2215 S.O2    1  UNL1        0.0020
     31 O          63.9378   95.7498    2.1102 O.2     1  UNL1       -0.1724
     32 C          65.1888   96.1155    0.4365 C.3     1  UNL1        0.2663
     33 C          64.7750   96.2474   -0.9992 C.2     1  UNL1        0.3161
     34 N          63.4929   96.8471   -1.4958 N.2     1  UNL1       -0.0633
     35 C          63.4962   96.7731   -2.9939 C.3     1  UNL1        0.3130
     36 C          64.7803   96.1276   -3.4234 C.3     1  UNL1        0.2575
     37 N          65.5706   95.8027   -2.1906 N.pl3   1  UNL1       -0.2175
     38 H          66.4561   95.3730   -2.1674 H       1  UNL1        0.2921
@<TRIPOS>BOND
     1    29    30    2
     2    30    31    2
     3    30    28    1
     4    28    27    1
     5     1    27    1
     6     1     2    1
     7     2     3    1
     8     3     4    1
     9     4     5    1
    10     5    17    1
    11    17    18    2
    12    17    19    2
    13    17    20    1
    14    20    21   ar
    15    21    22   ar
    16    22    23   ar
    17    23    24    1
    18    23    25   ar
    19    25    26   ar
    20     5     6    1
    21     6     7   ar
    22     7     8    1
    23     7     9   ar
    24     9    10   ar
    25    10    11   ar
    26    11    12    1
    27    11    13   ar
    28    13    14    1
    29    14    15    1
    30    16    15    1
    31    30    32    1
    32    32    33    1
    33    33    34    2
    34    34    35    1
    35    35    36    1
    36    36    37    1
    37    16     1    1
    38    37    33    1
    39    16     5    1
    40    26    20   ar
    41    13     6   ar
    42    37    38    1
@<TRIPOS>MOLECULE
*****
 38 42 0 0 0
SMALL
GASTEIGER

@<TRIPOS>ATOM
      1 C          57.9128   96.1094   -4.6697 C.3     1  UNL1        0.1225
      2 O          57.1689   96.2279   -3.3726 O.3     1  UNL1       -0.3559
      3 C          57.7828   95.7096   -2.1060 C.3     1  UNL1        0.1441
      4 C          59.1406   95.0729   -2.1364 C.3     1  UNL1        0.0589
      5 C          59.8845   94.9545   -3.4335 C.3     1  UNL1        0.1466
      6 C          61.2424   94.3178   -3.4639 C.ar    1  UNL1        0.0618
      7 C          61.8562   93.7995   -2.1972 C.ar    1  UNL1        0.1407
      8 F          61.4098   93.7531   -0.7658 F       1  UNL1       -0.2043
      9 C          63.2141   93.1628   -2.2276 C.ar    1  UNL1        0.0319
     10 C          63.9580   93.0443   -3.5247 C.ar    1  UNL1        0.0351
     11 C          63.3441   93.5626   -4.7914 C.ar    1  UNL1        0.1737
     12 F          64.0881   93.4441   -6.0885 F       1  UNL1       -0.2010
     13 C          61.9863   94.1993   -4.7609 C.ar    1  UNL1        0.1655
     14 O          61.3724   94.7175   -6.0277 O.3     1  UNL1       -0.4732
     15 C          60.0146   95.3542   -5.9973 C.3     1  UNL1        0.2098
     16 C          59.2707   95.4727   -4.7001 C.3     1  UNL1        0.0957
     17 S          60.4984   94.4362   -2.1668 S.O2    1  UNL1        0.0094
     18 O          61.0721   94.8706   -1.8238 O.2     1  UNL1       -0.1684
     19 O          59.7774   93.1449   -1.9158 O.2     1  UNL1       -0.1684
     20 C          61.1123   93.9179   -0.9000 C.ar    1  UNL1        0.1059
     21 C          61.9329   94.8295   -0.0366 C.ar    1  UNL1        0.0192
     22 C          62.5468   94.3112    1.2302 C.ar    1  UNL1        0.0127
     23 C          62.3400   92.8813    1.6334 C.ar    1  UNL1        0.0578
     24 CL         62.9539   92.3629    2.9000 Cl      1  UNL1       -0.0822
     25 C          61.5194   91.9697    0.7698 C.ar    1  UNL1        0.0127
     26 C          60.9056   92.4880   -0.4968 C.ar    1  UNL1        0.0192
     27 C          57.2989   96.6277   -5.9365 C.3     1  UNL1        0.0550
     28 C          56.1552   95.8932   -6.5708 C.3     1  UNL1        0.1540
     29 O          57.1254   94.2150   -7.4324 O.2     1  UNL1       -0.1724
     30 S          56.0402   94.4058   -6.4146 S.O2    1  UNL1        0.0020
     31 O          54.9549   94.5966   -5.3969 O.2     1  UNL1       -0.1724
     32 C          55.9251   92.9183   -6.2584 C.3     1  UNL1        0.2663
     33 C          55.9997   92.2995   -4.8941 C.2     1  UNL1        0.3161
     34 N          55.6594   90.8797   -4.5501 N.2     1  UNL1       -0.0633
     35 C          55.8772   90.6945   -3.0776 C.3     1  UNL1        0.3130
     36 C          56.3521   91.9999   -2.5115 C.3     1  UNL1        0.2575
     37 N          56.4279   92.9918   -3.6341 N.pl3   1  UNL1       -0.2175
     38 H          56.7092   93.9321   -3.5575 H       1  UNL1        0.2921
@<TRIPOS>BOND
     1    29    30    2
     2    30    31    2
     3    30    28    1
     4    28    27    1
     5     1    27    1
     6     1     2    1
     7     2     3    1
     8     3     4    1
     9     4     5    1
    10     5    17    1
    11    17    18    2
    12    17    19    2
    13    17    20    1
    14    20    21   ar
    15    21    22   ar
    16    22    23   ar
    17    23    24    1
    18    23    25   ar
    19    25    26   ar
    20     5     6    1
    21     6     7   ar
    22     7     8    1
    23     7     9   ar
    24     9    10   ar
    25    10    11   ar
    26    11    12    1
    27    11    13   ar
    28    13    14    1
    29    14    15    1
    30    16    15    1
    31    30    32    1
    32    32    33    1
    33    33    34    2
    34    34    35    1
    35    35    36    1
    36    36    37    1
    37    16     1    1
    38    37    33    1
    39    16     5    1
    40    26    20   ar
    41    13     6   ar
    42    37    38    1
