@<TRIPOS>MOLECULE
*****
 53 56 0 0 0
SMALL
GASTEIGER

@<TRIPOS>ATOM
      1 C          62.7579   86.3682   12.3224 C.3     1  UNL1        0.0760
      2 C          63.6902   88.1548   13.9622 C.2     1  UNL1        0.2403
      3 O          63.8407   87.1038   15.0218 O.2     1  UNL1       -0.2733
      4 N          63.1487   87.7870   12.6125 N.am    1  UNL1       -0.3043
      5 H          63.0499   88.4768   11.9171 H       1  UNL1        0.1494
      6 C          64.0811   89.5736   14.2523 C.3     1  UNL1        0.1496
      7 N          64.3917   91.7116   10.9233 N.am    1  UNL1       -0.2567
      8 C          63.5375   92.1404    9.7672 C.3     1  UNL1        0.1168
      9 C          63.8093   90.8570   12.0098 C.2     1  UNL1        0.3046
     10 O          62.3727   90.4313   11.9403 O.2     1  UNL1       -0.2526
     11 N          64.6635   90.4282   13.1658 N.am    1  UNL1       -0.2824
     12 H          65.6064   90.7076   13.2115 H       1  UNL1        0.1514
     13 C          65.8283   92.1373   10.9928 C.3     1  UNL1        0.1413
     14 C          67.4649   93.2793   14.3220 C.ar    1  UNL1        0.0875
     15 N          67.1750   92.2199   13.3004 N.ar    1  UNL1       -0.2453
     16 C          66.3447   92.8378   12.2147 C.ar    1  UNL1        0.0858
     17 C          66.1214   94.2791   12.5652 C.ar    1  UNL1        0.0530
     18 S          66.8137   94.5520   13.8676 S.2     1  UNL1       -0.0705
     19 C          68.1228   91.8406   16.3828 C.3     1  UNL1        0.0069
     20 C          68.2654   93.0980   15.5775 C.3     1  UNL1        0.0465
     21 C          69.2084   94.1741   16.0278 C.3     1  UNL1        0.0069
     22 C          63.8895   90.1378   15.6289 C.3     1  UNL1        0.0270
     23 C          63.1361   89.3542   16.6625 C.3     1  UNL1        0.0022
     24 C          64.4513   91.4857   15.9718 C.3     1  UNL1        0.0022
     25 C          61.5360   86.0797   11.5017 C.3     1  UNL1        0.0216
     26 C          60.6847   87.2089   11.0015 C.3     1  UNL1        0.0217
     27 C          60.4046   87.3441    9.5341 C.3     1  UNL1        0.0792
     28 N          60.5045   88.6864    8.8721 N.am    1  UNL1       -0.2720
     29 C          59.6023   89.0246    7.7223 C.2     1  UNL1        0.4019
     30 O          58.6003   88.0205    7.2347 O.2     1  UNL1       -0.2264
     31 H          61.1621   89.3455    9.1921 H       1  UNL1        0.1527
     32 O          59.7021   90.3669    7.0603 O.3     1  UNL1       -0.4296
     33 C          59.0491   90.5974    5.7297 C.3     1  UNL1        0.2382
     34 C          59.7683   91.3720    4.6654 C.ar    1  UNL1        0.0405
     35 C          61.2260   91.1242    4.4131 C.ar    1  UNL1        0.0025
     36 C          61.9452   91.8988    3.3488 C.ar    1  UNL1        0.0205
     37 C          61.2067   92.9212    2.5368 C.ar    1  UNL1        0.0989
     38 N          59.7490   93.1690    2.7892 N.ar    1  UNL1       -0.2425
     39 C          59.0298   92.3943    3.8535 C.ar    1  UNL1        0.0982
     40 C          60.0247   86.1371    8.7287 C.3     1  UNL1        0.0460
     41 C          61.0214   85.5124    7.7979 C.ar    1  UNL1       -0.0205
     42 C          60.5620   84.9018    6.5072 C.ar    1  UNL1       -0.0042
     43 C          61.5587   84.2771    5.5764 C.ar    1  UNL1       -0.0003
     44 C          63.0148   84.2630    5.9364 C.ar    1  UNL1       -0.0000
     45 C          63.4742   84.8736    7.2272 C.ar    1  UNL1       -0.0003
     46 C          62.4775   85.4982    8.1579 C.ar    1  UNL1       -0.0042
     47 C          63.5890   85.2378   12.8531 C.3     1  UNL1        0.0459
     48 C          63.4297   83.8587   12.2849 C.ar    1  UNL1       -0.0205
     49 C          64.0266   83.5240   10.9501 C.ar    1  UNL1       -0.0042
     50 C          63.8673   82.1449   10.3819 C.ar    1  UNL1       -0.0003
     51 C          63.1113   81.1006   11.1485 C.ar    1  UNL1       -0.0000
     52 C          62.5144   81.4353   12.4834 C.ar    1  UNL1       -0.0003
     53 C          62.6736   82.8144   13.0516 C.ar    1  UNL1       -0.0042
@<TRIPOS>BOND
     1    19    20    1
     2    20    21    1
     3    20    14    1
     4    14    15   ar
     5    15    16   ar
     6    16    13    1
     7    13     7    1
     8     7     8    1
     9     7     9   am
    10     9    10    2
    11     9    11   am
    12     6    11    1
    13     6     2    1
    14     2     3    2
    15     2     4   am
    16     4     1    1
    17     1    25    1
    18    25    26    1
    19    27    26    1
    20    27    40    1
    21    40    41    1
    22    41    42   ar
    23    42    43   ar
    24    43    44   ar
    25    44    45   ar
    26    45    46   ar
    27    27    28    1
    28    28    29   am
    29    29    30    2
    30    29    32    1
    31    32    33    1
    32    33    34    1
    33    34    35   ar
    34    35    36   ar
    35    36    37   ar
    36    37    38   ar
    37    38    39   ar
    38     1    47    1
    39    47    48    1
    40    48    49   ar
    41    49    50   ar
    42    50    51   ar
    43    51    52   ar
    44    52    53   ar
    45     6    22    1
    46    22    23    1
    47    22    24    1
    48    16    17   ar
    49    17    18   ar
    50    18    14   ar
    51    46    41   ar
    52    39    34   ar
    53    53    48   ar
    54    11    12    1
    55     4     5    1
    56    28    31    1
@<TRIPOS>MOLECULE
*****
 53 56 0 0 0
SMALL
GASTEIGER

@<TRIPOS>ATOM
      1 C          63.1837   84.8427   13.0392 C.3     1  UNL1        0.0760
      2 C          64.0897   86.7615   14.5385 C.2     1  UNL1        0.2403
      3 O          65.3555   85.9886   14.7627 O.2     1  UNL1       -0.2733
      4 N          63.0037   86.1885   13.6767 N.am    1  UNL1       -0.3043
      5 H          62.1729   86.6958   13.5295 H       1  UNL1        0.1494
      6 C          63.9097   88.1073   15.1760 C.3     1  UNL1        0.1496
      7 N          63.9730   90.9739   12.4322 N.am    1  UNL1       -0.2567
      8 C          63.2475   91.3582   11.1768 C.3     1  UNL1        0.1168
      9 C          63.5786   89.7328   13.1764 C.2     1  UNL1        0.3046
     10 O          62.4585   88.8758   12.6653 O.2     1  UNL1       -0.2526
     11 N          64.3042   89.3485   14.4317 N.am    1  UNL1       -0.2824
     12 H          65.0393   89.9109   14.7672 H       1  UNL1        0.1514
     13 C          65.0930   91.8308   12.9433 C.3     1  UNL1        0.1413
     14 C          67.0512   93.6618   10.1364 C.ar    1  UNL1        0.0875
     15 N          66.4888   92.4081   10.7379 N.ar    1  UNL1       -0.2453
     16 C          65.7964   92.7774   12.0162 C.ar    1  UNL1        0.0858
     17 C          65.9309   94.2594   12.2049 C.ar    1  UNL1        0.0530
     18 S          66.7064   94.8061   11.0431 S.2     1  UNL1       -0.0705
     19 C          67.6979   94.9752    7.9900 C.3     1  UNL1        0.0069
     20 C          67.8229   93.7551    8.8535 C.3     1  UNL1        0.0465
     21 C          68.7196   92.6282    8.4341 C.3     1  UNL1        0.0069
     22 C          63.3352   88.2119   16.5576 C.3     1  UNL1        0.0270
     23 C          63.1069   89.5598   17.1749 C.3     1  UNL1        0.0022
     24 C          62.9890   86.9686   17.3220 C.3     1  UNL1        0.0022
     25 C          62.8558   84.6502   11.5882 C.3     1  UNL1        0.0216
     26 C          61.9482   85.6189   10.8896 C.3     1  UNL1        0.0217
     27 C          62.2903   86.1083    9.5135 C.3     1  UNL1        0.0792
     28 N          61.8110   87.4538    9.0554 N.am    1  UNL1       -0.2720
     29 C          60.3862   87.6351    8.6229 C.2     1  UNL1        0.4019
     30 O          59.4407   86.4709    8.6486 O.2     1  UNL1       -0.2264
     31 H          62.4316   88.2179    9.0386 H       1  UNL1        0.1527
     32 O          59.9069   88.9806    8.1648 O.3     1  UNL1       -0.4296
     33 C          58.9600   89.0850    7.0061 C.3     1  UNL1        0.2382
     34 C          59.1203   90.1892    6.0037 C.ar    1  UNL1        0.0405
     35 C          60.4811   90.5260    5.4699 C.ar    1  UNL1        0.0025
     36 C          60.6413   91.6302    4.4675 C.ar    1  UNL1        0.0205
     37 C          59.4409   92.3978    3.9988 C.ar    1  UNL1        0.0989
     38 N          58.0801   92.0610    4.5325 N.ar    1  UNL1       -0.2425
     39 C          57.9198   90.9567    5.5349 C.ar    1  UNL1        0.0982
     40 C          63.1117   85.2522    8.5956 C.3     1  UNL1        0.0460
     41 C          62.5619   84.8404    7.2621 C.ar    1  UNL1       -0.0205
     42 C          63.4599   84.7974    6.0615 C.ar    1  UNL1       -0.0042
     43 C          62.9101   84.3856    4.7280 C.ar    1  UNL1       -0.0003
     44 C          61.4623   84.0167    4.5953 C.ar    1  UNL1       -0.0000
     45 C          60.5642   84.0596    5.7959 C.ar    1  UNL1       -0.0003
     46 C          61.1140   84.4715    7.1293 C.ar    1  UNL1       -0.0042
     47 C          63.6918   83.6894   13.8527 C.3     1  UNL1        0.0459
     48 C          62.9876   82.3660   13.7992 C.ar    1  UNL1       -0.0205
     49 C          61.5629   82.2555   14.2554 C.ar    1  UNL1       -0.0042
     50 C          60.8588   80.9322   14.2019 C.ar    1  UNL1       -0.0003
     51 C          61.5792   79.7193   13.6921 C.ar    1  UNL1       -0.0000
     52 C          63.0039   79.8298   13.2359 C.ar    1  UNL1       -0.0003
     53 C          63.7081   81.1531   13.2894 C.ar    1  UNL1       -0.0042
@<TRIPOS>BOND
     1    19    20    1
     2    20    21    1
     3    20    14    1
     4    14    15   ar
     5    15    16   ar
     6    16    13    1
     7    13     7    1
     8     7     8    1
     9     7     9   am
    10     9    10    2
    11     9    11   am
    12     6    11    1
    13     6     2    1
    14     2     3    2
    15     2     4   am
    16     4     1    1
    17     1    25    1
    18    25    26    1
    19    27    26    1
    20    27    40    1
    21    40    41    1
    22    41    42   ar
    23    42    43   ar
    24    43    44   ar
    25    44    45   ar
    26    45    46   ar
    27    27    28    1
    28    28    29   am
    29    29    30    2
    30    29    32    1
    31    32    33    1
    32    33    34    1
    33    34    35   ar
    34    35    36   ar
    35    36    37   ar
    36    37    38   ar
    37    38    39   ar
    38     1    47    1
    39    47    48    1
    40    48    49   ar
    41    49    50   ar
    42    50    51   ar
    43    51    52   ar
    44    52    53   ar
    45     6    22    1
    46    22    23    1
    47    22    24    1
    48    16    17   ar
    49    17    18   ar
    50    18    14   ar
    51    46    41   ar
    52    39    34   ar
    53    53    48   ar
    54    11    12    1
    55     4     5    1
    56    28    31    1
@<TRIPOS>MOLECULE
*****
 53 56 0 0 0
SMALL
GASTEIGER

@<TRIPOS>ATOM
      1 C          63.2054   84.8857   12.0001 C.3     1  UNL1        0.0760
      2 C          64.0320   86.3425   13.9862 C.2     1  UNL1        0.2403
      3 O          65.0259   85.2803   14.3517 O.2     1  UNL1       -0.2733
      4 N          63.1216   86.1453   12.8104 N.am    1  UNL1       -0.3043
      5 H          62.4692   86.8425   12.5706 H       1  UNL1        0.1494
      6 C          63.9482   87.6020   14.7966 C.3     1  UNL1        0.1496
      7 N          63.9518   90.8223   12.4771 N.am    1  UNL1       -0.2567
      8 C          63.1382   91.4226   11.3691 C.3     1  UNL1        0.1168
      9 C          63.5432   89.5123   13.0828 C.2     1  UNL1        0.3046
     10 O          62.3209   88.8025   12.5805 O.2     1  UNL1       -0.2526
     11 N          64.3569   88.9121   14.1908 N.am    1  UNL1       -0.2824
     12 H          65.1591   89.3779   14.5205 H       1  UNL1        0.1514
     13 C          65.1741   91.5321   12.9794 C.3     1  UNL1        0.1413
     14 C          67.0466   93.6138   10.2913 C.ar    1  UNL1        0.0875
     15 N          66.4997   92.3101   10.7925 N.ar    1  UNL1       -0.2453
     16 C          65.8503   92.5599   12.1213 C.ar    1  UNL1        0.0858
     17 C          65.9958   94.0181   12.4414 C.ar    1  UNL1        0.0530
     18 S          66.7352   94.6695   11.3105 S.2     1  UNL1       -0.0705
     19 C          67.5431   95.0732    8.2000 C.3     1  UNL1        0.0069
     20 C          67.7767   93.8249    8.9981 C.3     1  UNL1        0.0465
     21 C          68.7405   92.7876    8.5031 C.3     1  UNL1        0.0069
     22 C          63.4559   87.5515   16.2125 C.3     1  UNL1        0.0270
     23 C          63.2564   86.2284   16.8905 C.3     1  UNL1        0.0022
     24 C          63.1630   88.8241   16.9505 C.3     1  UNL1        0.0022
     25 C          62.5370   84.8107   10.6594 C.3     1  UNL1        0.0216
     26 C          62.5732   85.9923    9.7362 C.3     1  UNL1        0.0217
     27 C          61.3449   86.8316    9.5435 C.3     1  UNL1        0.0792
     28 N          61.1212   87.5464    8.2439 N.am    1  UNL1       -0.2720
     29 C          59.7529   87.5753    7.6297 C.2     1  UNL1        0.4019
     30 O          58.6085   86.8895    8.3151 O.2     1  UNL1       -0.2264
     31 H          61.8723   87.9965    7.7941 H       1  UNL1        0.1527
     32 O          59.5292   88.2902    6.3301 O.3     1  UNL1       -0.4296
     33 C          58.9241   89.6627    6.3236 C.3     1  UNL1        0.2382
     34 C          59.3907   90.6833    5.3282 C.ar    1  UNL1        0.0405
     35 C          60.8391   90.7486    4.9438 C.ar    1  UNL1        0.0025
     36 C          61.3057   91.7692    3.9485 C.ar    1  UNL1        0.0205
     37 C          60.3238   92.7245    3.3376 C.ar    1  UNL1        0.0989
     38 N          58.8754   92.6592    3.7220 N.ar    1  UNL1       -0.2425
     39 C          58.4089   91.6386    4.7173 C.ar    1  UNL1        0.0982
     40 C          60.3403   86.9559   10.6505 C.3     1  UNL1        0.0460
     41 C          59.8454   88.3097   11.0656 C.ar    1  UNL1       -0.0205
     42 C          58.9969   88.4539   12.2941 C.ar    1  UNL1       -0.0042
     43 C          58.5020   89.8077   12.7091 C.ar    1  UNL1       -0.0003
     44 C          58.8555   91.0173   11.8956 C.ar    1  UNL1       -0.0000
     45 C          59.7040   90.8732   10.6671 C.ar    1  UNL1       -0.0003
     46 C          60.1989   89.5194   10.2521 C.ar    1  UNL1       -0.0042
     47 C          63.9575   83.7012   12.5306 C.3     1  UNL1        0.0459
     48 C          63.2222   82.4419   12.8817 C.ar    1  UNL1       -0.0205
     49 C          63.4045   81.2093   12.0465 C.ar    1  UNL1       -0.0042
     50 C          62.6692   79.9499   12.3977 C.ar    1  UNL1       -0.0003
     51 C          61.7517   79.9231   13.5840 C.ar    1  UNL1       -0.0000
     52 C          61.5694   81.1557   14.4192 C.ar    1  UNL1       -0.0003
     53 C          62.3046   82.4150   14.0681 C.ar    1  UNL1       -0.0042
@<TRIPOS>BOND
     1    19    20    1
     2    20    21    1
     3    20    14    1
     4    14    15   ar
     5    15    16   ar
     6    16    13    1
     7    13     7    1
     8     7     8    1
     9     7     9   am
    10     9    10    2
    11     9    11   am
    12     6    11    1
    13     6     2    1
    14     2     3    2
    15     2     4   am
    16     4     1    1
    17     1    25    1
    18    25    26    1
    19    27    26    1
    20    27    40    1
    21    40    41    1
    22    41    42   ar
    23    42    43   ar
    24    43    44   ar
    25    44    45   ar
    26    45    46   ar
    27    27    28    1
    28    28    29   am
    29    29    30    2
    30    29    32    1
    31    32    33    1
    32    33    34    1
    33    34    35   ar
    34    35    36   ar
    35    36    37   ar
    36    37    38   ar
    37    38    39   ar
    38     1    47    1
    39    47    48    1
    40    48    49   ar
    41    49    50   ar
    42    50    51   ar
    43    51    52   ar
    44    52    53   ar
    45     6    22    1
    46    22    23    1
    47    22    24    1
    48    16    17   ar
    49    17    18   ar
    50    18    14   ar
    51    46    41   ar
    52    39    34   ar
    53    53    48   ar
    54    11    12    1
    55     4     5    1
    56    28    31    1
@<TRIPOS>MOLECULE
*****
 53 56 0 0 0
SMALL
GASTEIGER

@<TRIPOS>ATOM
      1 C          62.0912   89.8292   10.6623 C.3     1  UNL1        0.0760
      2 C          61.7430   87.3314   11.2869 C.2     1  UNL1        0.2403
      3 O          60.4858   87.6904   12.0219 O.2     1  UNL1       -0.2733
      4 N          62.5458   88.4008   10.6071 N.am    1  UNL1       -0.3043
      5 H          63.3710   88.1651   10.1247 H       1  UNL1        0.1494
      6 C          62.1977   85.9030   11.2317 C.3     1  UNL1        0.1496
      7 N          62.9982   84.5021   14.8576 N.am    1  UNL1       -0.2567
      8 C          63.9019   84.8045   16.0160 C.3     1  UNL1        0.1168
      9 C          63.0498   85.3537   13.6239 C.2     1  UNL1        0.3046
     10 O          64.0050   86.5079   13.5486 O.2     1  UNL1       -0.2526
     11 N          62.1461   85.0513   12.4654 N.am    1  UNL1       -0.2824
     12 H          61.5192   84.2938   12.5148 H       1  UNL1        0.1514
     13 C          62.0430   83.3480   14.9328 C.3     1  UNL1        0.1413
     14 C          62.7021   80.7861   12.0923 C.ar    1  UNL1        0.0875
     15 N          62.6361   82.1984   12.5936 N.ar    1  UNL1       -0.2453
     16 C          62.2308   82.1594   14.0373 C.ar    1  UNL1        0.0858
     17 C          62.0463   80.7230   14.4283 C.ar    1  UNL1        0.0530
     18 S          62.3376   79.8743   13.2263 S.2     1  UNL1       -0.0705
     19 C          63.8265   81.2951    9.8062 C.3     1  UNL1        0.0069
     20 C          63.0682   80.3605   10.7014 C.3     1  UNL1        0.0465
     21 C          62.6761   79.0001   10.2057 C.3     1  UNL1        0.0069
     22 C          62.7039   85.3263    9.9429 C.3     1  UNL1        0.0270
     23 C          63.6870   84.1936    9.9629 C.3     1  UNL1        0.0022
     24 C          62.2269   85.8824    8.6340 C.3     1  UNL1        0.0022
     25 C          62.9821   90.8772   11.2604 C.3     1  UNL1        0.0216
     26 C          63.8025   91.7617   10.3691 C.3     1  UNL1        0.0217
     27 C          65.0019   92.4753   10.9190 C.3     1  UNL1        0.0792
     28 N          65.0026   92.9555   12.3401 N.am    1  UNL1       -0.2720
     29 C          66.3013   93.1534   13.0642 C.2     1  UNL1        0.4019
     30 O          67.5992   92.8711   12.3673 O.2     1  UNL1       -0.2264
     31 H          64.1508   93.1408   12.7975 H       1  UNL1        0.1527
     32 O          66.3020   93.6335   14.4853 O.3     1  UNL1       -0.4296
     33 C          66.2840   92.6431   15.6116 C.3     1  UNL1        0.2382
     34 C          65.2305   91.5762   15.6554 C.ar    1  UNL1        0.0405
     35 C          65.2569   90.4547   14.6597 C.ar    1  UNL1        0.0025
     36 C          64.2034   89.3879   14.7034 C.ar    1  UNL1        0.0205
     37 C          63.1235   89.4425   15.7429 C.ar    1  UNL1        0.0989
     38 N          63.0970   90.5639   16.7387 N.ar    1  UNL1       -0.2425
     39 C          64.1505   91.6308   16.6949 C.ar    1  UNL1        0.0982
     40 C          66.2005   92.7087   10.0479 C.3     1  UNL1        0.0460
     41 C          66.5128   94.0911    9.5565 C.ar    1  UNL1       -0.0205
     42 C          67.6294   94.3049    8.5780 C.ar    1  UNL1       -0.0042
     43 C          67.9416   95.6873    8.0867 C.ar    1  UNL1       -0.0003
     44 C          67.1373   96.8559    8.5738 C.ar    1  UNL1       -0.0000
     45 C          66.0207   96.6422    9.5523 C.ar    1  UNL1       -0.0003
     46 C          65.7085   95.2598   10.0437 C.ar    1  UNL1       -0.0042
     47 C          60.7455   90.2094   10.1194 C.3     1  UNL1        0.0459
     48 C          60.1240   89.3995    9.0204 C.ar    1  UNL1       -0.0205
     49 C          59.6015   88.0230    9.3067 C.ar    1  UNL1       -0.0042
     50 C          58.9800   87.2131    8.2077 C.ar    1  UNL1       -0.0003
     51 C          58.8809   87.7797    6.8225 C.ar    1  UNL1       -0.0000
     52 C          59.4034   89.1564    6.5361 C.ar    1  UNL1       -0.0003
     53 C          60.0249   89.9663    7.6351 C.ar    1  UNL1       -0.0042
@<TRIPOS>BOND
     1    19    20    1
     2    20    21    1
     3    20    14    1
     4    14    15   ar
     5    15    16   ar
     6    16    13    1
     7    13     7    1
     8     7     8    1
     9     7     9   am
    10     9    10    2
    11     9    11   am
    12     6    11    1
    13     6     2    1
    14     2     3    2
    15     2     4   am
    16     4     1    1
    17     1    25    1
    18    25    26    1
    19    27    26    1
    20    27    40    1
    21    40    41    1
    22    41    42   ar
    23    42    43   ar
    24    43    44   ar
    25    44    45   ar
    26    45    46   ar
    27    27    28    1
    28    28    29   am
    29    29    30    2
    30    29    32    1
    31    32    33    1
    32    33    34    1
    33    34    35   ar
    34    35    36   ar
    35    36    37   ar
    36    37    38   ar
    37    38    39   ar
    38     1    47    1
    39    47    48    1
    40    48    49   ar
    41    49    50   ar
    42    50    51   ar
    43    51    52   ar
    44    52    53   ar
    45     6    22    1
    46    22    23    1
    47    22    24    1
    48    16    17   ar
    49    17    18   ar
    50    18    14   ar
    51    46    41   ar
    52    39    34   ar
    53    53    48   ar
    54    11    12    1
    55     4     5    1
    56    28    31    1
@<TRIPOS>MOLECULE
*****
 53 56 0 0 0
SMALL
GASTEIGER

@<TRIPOS>ATOM
      1 C          62.4781   88.9191   11.2103 C.3     1  UNL1        0.0760
      2 C          60.6287   88.3925    9.4631 C.2     1  UNL1        0.2403
      3 O          59.6085   88.3324   10.5611 O.2     1  UNL1       -0.2733
      4 N          62.0635   88.6859    9.7877 N.am    1  UNL1       -0.3043
      5 H          62.7332   88.7253    9.0671 H       1  UNL1        0.1494
      6 C          60.2142   88.1593    8.0405 C.3     1  UNL1        0.1496
      7 N          58.9808   90.9290    5.4798 N.am    1  UNL1       -0.2567
      8 C          57.6993   91.4341    4.8860 C.3     1  UNL1        0.1168
      9 C          58.9568   89.7967    6.4632 C.2     1  UNL1        0.3046
     10 O          57.6511   89.1694    6.8530 O.2     1  UNL1       -0.2526
     11 N          60.2383   89.2917    7.0570 N.am    1  UNL1       -0.2824
     12 H          61.0952   89.7034    6.8013 H       1  UNL1        0.1514
     13 C          60.2864   91.5563    5.0902 C.3     1  UNL1        0.1413
     14 C          59.9874   93.3097    1.6402 C.ar    1  UNL1        0.0875
     15 N          59.3877   92.8709    2.9432 N.ar    1  UNL1       -0.2453
     16 C          60.4511   92.1604    3.7270 C.ar    1  UNL1        0.0858
     17 C          61.7080   92.1601    2.9084 C.ar    1  UNL1        0.0530
     18 S          61.4215   92.8703    1.6187 S.2     1  UNL1       -0.0705
     19 C          59.4863   95.5339    0.3945 C.3     1  UNL1        0.0069
     20 C          59.2777   94.0566    0.5501 C.3     1  UNL1        0.0465
     21 C          58.3594   93.3263   -0.3845 C.3     1  UNL1        0.0069
     22 C          59.7755   86.7937    7.6014 C.3     1  UNL1        0.0270
     23 C          58.3376   86.3886    7.7358 C.3     1  UNL1        0.0022
     24 C          60.7749   85.8334    7.0279 C.3     1  UNL1        0.0022
     25 C          62.9184   87.7655   12.0620 C.3     1  UNL1        0.0216
     26 C          62.6807   86.3585   11.5998 C.3     1  UNL1        0.0217
     27 C          63.0228   85.2063   12.4974 C.3     1  UNL1        0.0792
     28 N          62.9043   85.3538   13.9854 N.am    1  UNL1       -0.2720
     29 C          64.1055   85.1407   14.8582 C.2     1  UNL1        0.4019
     30 O          65.4251   84.7800   14.2431 O.2     1  UNL1       -0.2264
     31 H          62.0382   85.5906   14.3891 H       1  UNL1        0.1527
     32 O          63.9869   85.2883   16.3462 O.3     1  UNL1       -0.4296
     33 C          63.1810   86.4124   16.9266 C.3     1  UNL1        0.2382
     34 C          63.4402   87.8240   16.4907 C.ar    1  UNL1        0.0405
     35 C          64.2769   88.0919   15.2750 C.ar    1  UNL1        0.0025
     36 C          64.5361   89.5036   14.8390 C.ar    1  UNL1        0.0205
     37 C          63.9585   90.6474   15.6188 C.ar    1  UNL1        0.0989
     38 N          63.1218   90.3795   16.8346 N.ar    1  UNL1       -0.2425
     39 C          62.8626   88.9678   17.2705 C.ar    1  UNL1        0.0982
     40 C          63.4835   83.9067   11.9069 C.3     1  UNL1        0.0460
     41 C          62.9450   82.6101   12.4352 C.ar    1  UNL1       -0.0205
     42 C          63.1841   81.3358   11.6811 C.ar    1  UNL1       -0.0042
     43 C          62.6456   80.0393   12.2094 C.ar    1  UNL1       -0.0003
     44 C          61.8680   80.0172   13.4919 C.ar    1  UNL1       -0.0000
     45 C          61.6289   81.2915   14.2461 C.ar    1  UNL1       -0.0003
     46 C          62.1674   82.5880   13.7177 C.ar    1  UNL1       -0.0042
     47 C          62.4523   90.3060   11.7813 C.3     1  UNL1        0.0459
     48 C          63.6501   91.1977   11.6396 C.ar    1  UNL1       -0.0205
     49 C          64.4895   91.5225   12.8395 C.ar    1  UNL1       -0.0042
     50 C          65.6873   92.4143   12.6979 C.ar    1  UNL1       -0.0003
     51 C          66.0457   92.9812   11.3562 C.ar    1  UNL1       -0.0000
     52 C          65.2063   92.6565   10.1562 C.ar    1  UNL1       -0.0003
     53 C          64.0085   91.7647   10.2979 C.ar    1  UNL1       -0.0042
@<TRIPOS>BOND
     1    19    20    1
     2    20    21    1
     3    20    14    1
     4    14    15   ar
     5    15    16   ar
     6    16    13    1
     7    13     7    1
     8     7     8    1
     9     7     9   am
    10     9    10    2
    11     9    11   am
    12     6    11    1
    13     6     2    1
    14     2     3    2
    15     2     4   am
    16     4     1    1
    17     1    25    1
    18    25    26    1
    19    27    26    1
    20    27    40    1
    21    40    41    1
    22    41    42   ar
    23    42    43   ar
    24    43    44   ar
    25    44    45   ar
    26    45    46   ar
    27    27    28    1
    28    28    29   am
    29    29    30    2
    30    29    32    1
    31    32    33    1
    32    33    34    1
    33    34    35   ar
    34    35    36   ar
    35    36    37   ar
    36    37    38   ar
    37    38    39   ar
    38     1    47    1
    39    47    48    1
    40    48    49   ar
    41    49    50   ar
    42    50    51   ar
    43    51    52   ar
    44    52    53   ar
    45     6    22    1
    46    22    23    1
    47    22    24    1
    48    16    17   ar
    49    17    18   ar
    50    18    14   ar
    51    46    41   ar
    52    39    34   ar
    53    53    48   ar
    54    11    12    1
    55     4     5    1
    56    28    31    1
@<TRIPOS>MOLECULE
*****
 53 56 0 0 0
SMALL
GASTEIGER

@<TRIPOS>ATOM
      1 C          63.2840   83.7839   10.5976 C.3     1  UNL1        0.0760
      2 C          63.1710   85.3746   12.6488 C.2     1  UNL1        0.2403
      3 O          61.6725   85.3342   12.5976 O.2     1  UNL1       -0.2733
      4 N          63.9768   84.5994   11.6488 N.am    1  UNL1       -0.3043
      5 H          64.9604   84.6259   11.6824 H       1  UNL1        0.1494
      6 C          63.8639   86.1901   13.7000 C.3     1  UNL1        0.1496
      7 N          63.5389   89.9463   14.9388 N.am    1  UNL1       -0.2567
      8 C          63.4183   90.7099   16.2243 C.3     1  UNL1        0.1168
      9 C          63.6411   88.4500   14.9621 C.2     1  UNL1        0.3046
     10 O          63.6226   87.7172   16.2708 O.2     1  UNL1       -0.2526
     11 N          63.7617   87.6864   13.6767 N.am    1  UNL1       -0.2824
     12 H          63.7739   88.1674   12.8177 H       1  UNL1        0.1514
     13 C          63.5574   90.6790   13.6301 C.3     1  UNL1        0.1413
     14 C          66.4639   92.4079   11.7250 C.ar    1  UNL1        0.0875
     15 N          65.0615   91.8779   11.7739 N.ar    1  UNL1       -0.2453
     16 C          64.8267   91.3133   13.1435 C.ar    1  UNL1        0.0858
     17 C          66.0841   91.4943   13.9413 C.ar    1  UNL1        0.0530
     18 S          67.0959   92.1708   13.0646 S.2     1  UNL1       -0.0705
     19 C          66.7126   94.4435   10.1299 C.3     1  UNL1        0.0069
     20 C          67.1193   93.0603   10.5440 C.3     1  UNL1        0.0465
     21 C          68.1813   92.3296    9.7771 C.3     1  UNL1        0.0069
     22 C          64.6589   85.5092   14.7744 C.3     1  UNL1        0.0270
     23 C          66.1164   85.8220   14.9412 C.3     1  UNL1        0.0022
     24 C          63.9963   84.5157   15.6820 C.3     1  UNL1        0.0022
     25 C          62.5087   84.4657    9.5095 C.3     1  UNL1        0.0216
     26 C          62.9737   85.7866    8.9721 C.3     1  UNL1        0.0217
     27 C          62.1811   87.0298    9.2486 C.3     1  UNL1        0.0792
     28 N          61.4291   87.7022    8.1385 N.am    1  UNL1       -0.2720
     29 C          59.9717   87.4106    7.9356 C.2     1  UNL1        0.4019
     30 O          59.2664   86.4466    8.8428 O.2     1  UNL1       -0.2264
     31 H          61.8921   88.3350    7.5430 H       1  UNL1        0.1527
     32 O          59.2198   88.0831    6.8255 O.3     1  UNL1       -0.4296
     33 C          58.8189   89.5226    6.9555 C.3     1  UNL1        0.2382
     34 C          59.1388   90.4924    5.8569 C.ar    1  UNL1        0.0405
     35 C          60.5518   90.6417    5.3761 C.ar    1  UNL1        0.0025
     36 C          60.8716   91.6116    4.2774 C.ar    1  UNL1        0.0205
     37 C          59.7786   92.4321    3.6595 C.ar    1  UNL1        0.0989
     38 N          58.3656   92.2829    4.1403 N.ar    1  UNL1       -0.2425
     39 C          58.0457   91.3130    5.2390 C.ar    1  UNL1        0.0982
     40 C          62.1404   87.6005   10.6352 C.3     1  UNL1        0.0460
     41 C          61.1228   88.6449   10.9869 C.ar    1  UNL1       -0.0205
     42 C          59.9038   88.2687   11.7758 C.ar    1  UNL1       -0.0042
     43 C          58.8862   89.3131   12.1274 C.ar    1  UNL1       -0.0003
     44 C          59.0876   90.7337   11.6902 C.ar    1  UNL1       -0.0000
     45 C          60.3066   91.1100   10.9013 C.ar    1  UNL1       -0.0003
     46 C          61.3242   90.0655   10.5496 C.ar    1  UNL1       -0.0042
     47 C          63.3664   82.2866   10.6347 C.3     1  UNL1        0.0459
     48 C          62.8474   81.5361   11.8253 C.ar    1  UNL1       -0.0205
     49 C          62.3209   82.2856   13.0131 C.ar    1  UNL1       -0.0042
     50 C          61.8020   81.5352   14.2037 C.ar    1  UNL1       -0.0003
     51 C          61.8095   80.0353   14.2065 C.ar    1  UNL1       -0.0000
     52 C          62.3360   79.2857   13.0186 C.ar    1  UNL1       -0.0003
     53 C          62.8550   80.0361   11.8280 C.ar    1  UNL1       -0.0042
@<TRIPOS>BOND
     1    19    20    1
     2    20    21    1
     3    20    14    1
     4    14    15   ar
     5    15    16   ar
     6    16    13    1
     7    13     7    1
     8     7     8    1
     9     7     9   am
    10     9    10    2
    11     9    11   am
    12     6    11    1
    13     6     2    1
    14     2     3    2
    15     2     4   am
    16     4     1    1
    17     1    25    1
    18    25    26    1
    19    27    26    1
    20    27    40    1
    21    40    41    1
    22    41    42   ar
    23    42    43   ar
    24    43    44   ar
    25    44    45   ar
    26    45    46   ar
    27    27    28    1
    28    28    29   am
    29    29    30    2
    30    29    32    1
    31    32    33    1
    32    33    34    1
    33    34    35   ar
    34    35    36   ar
    35    36    37   ar
    36    37    38   ar
    37    38    39   ar
    38     1    47    1
    39    47    48    1
    40    48    49   ar
    41    49    50   ar
    42    50    51   ar
    43    51    52   ar
    44    52    53   ar
    45     6    22    1
    46    22    23    1
    47    22    24    1
    48    16    17   ar
    49    17    18   ar
    50    18    14   ar
    51    46    41   ar
    52    39    34   ar
    53    53    48   ar
    54    11    12    1
    55     4     5    1
    56    28    31    1
@<TRIPOS>MOLECULE
*****
 53 56 0 0 0
SMALL
GASTEIGER

@<TRIPOS>ATOM
      1 C          62.5562   84.8224   11.5069 C.3     1  UNL1        0.0760
      2 C          63.7251   85.5362   13.7146 C.2     1  UNL1        0.2403
      3 O          64.8343   84.5641   13.4417 O.2     1  UNL1       -0.2733
      4 N          62.5860   85.6654   12.7472 N.am    1  UNL1       -0.3043
      5 H          61.8580   86.3035   12.9263 H       1  UNL1        0.1494
      6 C          63.7549   86.3793   14.9550 C.3     1  UNL1        0.1496
      7 N          64.3759   90.2538   15.5485 N.am    1  UNL1       -0.2567
      8 C          63.6984   91.4245   16.1970 C.3     1  UNL1        0.1168
      9 C          63.7267   88.9019   15.5760 C.2     1  UNL1        0.3046
     10 O          62.4000   88.7206   16.2520 O.2     1  UNL1       -0.2526
     11 N          64.4042   87.7313   14.9275 N.am    1  UNL1       -0.2824
     12 H          65.2750   87.8502   14.4838 H       1  UNL1        0.1514
     13 C          65.7026   90.4351   14.8725 C.3     1  UNL1        0.1413
     14 C          66.4141   93.5776   12.7082 C.ar    1  UNL1        0.0875
     15 N          65.9277   92.1655   12.8476 N.ar    1  UNL1       -0.2453
     16 C          66.0701   91.7661   14.2864 C.ar    1  UNL1        0.0858
     17 C          66.6446   92.9313   15.0362 C.ar    1  UNL1        0.0530
     18 S          66.8572   94.0509   14.0609 S.2     1  UNL1       -0.0705
     19 C          66.0926   95.8325   11.4585 C.3     1  UNL1        0.0069
     20 C          66.4510   94.3761   11.4389 C.3     1  UNL1        0.0465
     21 C          66.8464   93.7183   10.1502 C.3     1  UNL1        0.0069
     22 C          63.1355   85.8704   16.2227 C.3     1  UNL1        0.0270
     23 C          62.0620   84.8243   16.1657 C.3     1  UNL1        0.0022
     24 C          63.5896   86.4076   17.5475 C.3     1  UNL1        0.0022
     25 C          61.6349   85.1804   10.3787 C.3     1  UNL1        0.0216
     26 C          61.9656   86.3328    9.4772 C.3     1  UNL1        0.0217
     27 C          60.9694   87.4356    9.2736 C.3     1  UNL1        0.0792
     28 N          60.3165   87.6189    7.9357 N.am    1  UNL1       -0.2720
     29 C          59.6664   88.9261    7.5912 C.2     1  UNL1        0.4019
     30 O          59.6692   90.0500    8.5846 O.2     1  UNL1       -0.2264
     31 H          60.3146   86.8813    7.2836 H       1  UNL1        0.1527
     32 O          59.0135   89.1094    6.2532 O.3     1  UNL1       -0.4296
     33 C          58.6083   90.4800    5.7979 C.3     1  UNL1        0.2382
     34 C          59.4708   91.2341    4.8296 C.ar    1  UNL1        0.0405
     35 C          60.9208   90.8794    4.6831 C.ar    1  UNL1        0.0025
     36 C          61.7833   91.6335    3.7149 C.ar    1  UNL1        0.0205
     37 C          61.1957   92.7423    2.8931 C.ar    1  UNL1        0.0989
     38 N          59.7456   93.0969    3.0396 N.ar    1  UNL1       -0.2425
     39 C          58.8831   92.3428    4.0078 C.ar    1  UNL1        0.0982
     40 C          60.6261   88.3551   10.4079 C.3     1  UNL1        0.0460
     41 C          61.5997   89.4125   10.8372 C.ar    1  UNL1       -0.0205
     42 C          62.4051   90.1518    9.8103 C.ar    1  UNL1       -0.0042
     43 C          63.3786   91.2091   10.2397 C.ar    1  UNL1       -0.0003
     44 C          63.5467   91.5271   11.6959 C.ar    1  UNL1       -0.0000
     45 C          62.7413   90.7877   12.7228 C.ar    1  UNL1       -0.0003
     46 C          61.7678   89.7304   12.2935 C.ar    1  UNL1       -0.0042
     47 C          63.4479   83.6213   11.3948 C.3     1  UNL1        0.0459
     48 C          63.0123   82.3074   11.9726 C.ar    1  UNL1       -0.0205
     49 C          62.4083   82.2548   13.3446 C.ar    1  UNL1       -0.0042
     50 C          61.9727   80.9409   13.9225 C.ar    1  UNL1       -0.0003
     51 C          62.1411   79.6796   13.1284 C.ar    1  UNL1       -0.0000
     52 C          62.7451   79.7321   11.7563 C.ar    1  UNL1       -0.0003
     53 C          63.1807   81.0460   11.1784 C.ar    1  UNL1       -0.0042
@<TRIPOS>BOND
     1    19    20    1
     2    20    21    1
     3    20    14    1
     4    14    15   ar
     5    15    16   ar
     6    16    13    1
     7    13     7    1
     8     7     8    1
     9     7     9   am
    10     9    10    2
    11     9    11   am
    12     6    11    1
    13     6     2    1
    14     2     3    2
    15     2     4   am
    16     4     1    1
    17     1    25    1
    18    25    26    1
    19    27    26    1
    20    27    40    1
    21    40    41    1
    22    41    42   ar
    23    42    43   ar
    24    43    44   ar
    25    44    45   ar
    26    45    46   ar
    27    27    28    1
    28    28    29   am
    29    29    30    2
    30    29    32    1
    31    32    33    1
    32    33    34    1
    33    34    35   ar
    34    35    36   ar
    35    36    37   ar
    36    37    38   ar
    37    38    39   ar
    38     1    47    1
    39    47    48    1
    40    48    49   ar
    41    49    50   ar
    42    50    51   ar
    43    51    52   ar
    44    52    53   ar
    45     6    22    1
    46    22    23    1
    47    22    24    1
    48    16    17   ar
    49    17    18   ar
    50    18    14   ar
    51    46    41   ar
    52    39    34   ar
    53    53    48   ar
    54    11    12    1
    55     4     5    1
    56    28    31    1
@<TRIPOS>MOLECULE
*****
 53 56 0 0 0
SMALL
GASTEIGER

@<TRIPOS>ATOM
      1 C          63.0885   90.5505   10.9723 C.3     1  UNL1        0.0760
      2 C          61.2077   89.4122    9.5878 C.2     1  UNL1        0.2403
      3 O          60.3767   89.2755   10.8290 O.2     1  UNL1       -0.2733
      4 N          62.5637   90.0497    9.6594 N.am    1  UNL1       -0.3043
      5 H          63.1091   90.1394    8.8448 H       1  UNL1        0.1494
      6 C          60.6829   88.9114    8.2749 C.3     1  UNL1        0.1496
      7 N          59.2409   91.0688    5.2722 N.am    1  UNL1       -0.2567
      8 C          57.9200   91.3869    4.6363 C.3     1  UNL1        0.1168
      9 C          59.3015   90.1491    6.4556 C.2     1  UNL1        0.3046
     10 O          58.0412   89.5475    7.0032 O.2     1  UNL1       -0.2526
     11 N          60.6223   89.8311    7.0914 N.am    1  UNL1       -0.2824
     12 H          61.4494   90.2259    6.7320 H       1  UNL1        0.1514
     13 C          60.5011   91.6704    4.7246 C.3     1  UNL1        0.1413
     14 C          59.7884   93.3103    1.2795 C.ar    1  UNL1        0.0875
     15 N          59.3229   92.8203    2.6186 N.ar    1  UNL1       -0.2453
     16 C          60.5110   92.2670    3.3483 C.ar    1  UNL1        0.0858
     17 C          61.7107   92.4152    2.4602 C.ar    1  UNL1        0.0530
     18 S          61.2641   93.0600    1.1816 S.2     1  UNL1       -0.0705
     19 C          59.0212   95.4144   -0.0375 C.3     1  UNL1        0.0069
     20 C          58.9290   93.9402    0.2237 C.3     1  UNL1        0.0465
     21 C          57.9773   93.0959   -0.5709 C.3     1  UNL1        0.0069
     22 C          60.2186   87.4910    8.1454 C.3     1  UNL1        0.0270
     23 C          61.2199   86.3872    7.9747 C.3     1  UNL1        0.0022
     24 C          58.7530   87.1743    8.1867 C.3     1  UNL1        0.0022
     25 C          63.2565   89.6034   12.1233 C.3     1  UNL1        0.0216
     26 C          62.8742   90.0319   13.5090 C.3     1  UNL1        0.0217
     27 C          63.7799   89.7266   14.6652 C.3     1  UNL1        0.0792
     28 N          64.2174   88.3152   14.9228 N.am    1  UNL1       -0.2720
     29 C          63.5306   87.4976   15.9764 C.2     1  UNL1        0.4019
     30 O          62.4064   88.0915   16.7723 O.2     1  UNL1       -0.2264
     31 H          64.9552   87.9254   14.4005 H       1  UNL1        0.1527
     32 O          63.9681   86.0862   16.2341 O.3     1  UNL1       -0.4296
     33 C          64.6345   85.2971   15.1464 C.3     1  UNL1        0.2382
     34 C          63.8886   84.1946   14.4549 C.ar    1  UNL1        0.0405
     35 C          64.2364   83.8239   13.0437 C.ar    1  UNL1        0.0025
     36 C          63.4905   82.7214   12.3523 C.ar    1  UNL1        0.0205
     37 C          62.3969   81.9895   13.0721 C.ar    1  UNL1        0.0989
     38 N          62.0491   82.3601   14.4833 N.ar    1  UNL1       -0.2425
     39 C          62.7950   83.4626   15.1747 C.ar    1  UNL1        0.0982
     40 C          64.2480   90.8328   15.5636 C.3     1  UNL1        0.0460
     41 C          65.5488   91.5260   15.2846 C.ar    1  UNL1       -0.0205
     42 C          66.2753   91.2678   13.9980 C.ar    1  UNL1       -0.0042
     43 C          67.5759   91.9610   13.7191 C.ar    1  UNL1       -0.0003
     44 C          68.1501   92.9122   14.7268 C.ar    1  UNL1       -0.0000
     45 C          67.4235   93.1703   16.0134 C.ar    1  UNL1       -0.0003
     46 C          66.1229   92.4772   16.2923 C.ar    1  UNL1       -0.0042
     47 C          63.4454   91.9984   11.1342 C.3     1  UNL1        0.0459
     48 C          64.8240   92.4748   10.7838 C.ar    1  UNL1       -0.0205
     49 C          65.1486   93.9381   10.8395 C.ar    1  UNL1       -0.0042
     50 C          66.5271   94.4145   10.4891 C.ar    1  UNL1       -0.0003
     51 C          67.5810   93.4275   10.0830 C.ar    1  UNL1       -0.0000
     52 C          67.2564   91.9640   10.0273 C.ar    1  UNL1       -0.0003
     53 C          65.8779   91.4877   10.3777 C.ar    1  UNL1       -0.0042
@<TRIPOS>BOND
     1    19    20    1
     2    20    21    1
     3    20    14    1
     4    14    15   ar
     5    15    16   ar
     6    16    13    1
     7    13     7    1
     8     7     8    1
     9     7     9   am
    10     9    10    2
    11     9    11   am
    12     6    11    1
    13     6     2    1
    14     2     3    2
    15     2     4   am
    16     4     1    1
    17     1    25    1
    18    25    26    1
    19    27    26    1
    20    27    40    1
    21    40    41    1
    22    41    42   ar
    23    42    43   ar
    24    43    44   ar
    25    44    45   ar
    26    45    46   ar
    27    27    28    1
    28    28    29   am
    29    29    30    2
    30    29    32    1
    31    32    33    1
    32    33    34    1
    33    34    35   ar
    34    35    36   ar
    35    36    37   ar
    36    37    38   ar
    37    38    39   ar
    38     1    47    1
    39    47    48    1
    40    48    49   ar
    41    49    50   ar
    42    50    51   ar
    43    51    52   ar
    44    52    53   ar
    45     6    22    1
    46    22    23    1
    47    22    24    1
    48    16    17   ar
    49    17    18   ar
    50    18    14   ar
    51    46    41   ar
    52    39    34   ar
    53    53    48   ar
    54    11    12    1
    55     4     5    1
    56    28    31    1
@<TRIPOS>MOLECULE
*****
 53 56 0 0 0
SMALL
GASTEIGER

@<TRIPOS>ATOM
      1 C          63.3546   89.6773   13.9237 C.3     1  UNL1        0.0760
      2 C          62.0061   90.1387   11.7514 C.2     1  UNL1        0.2403
      3 O          63.2759   90.5014   11.0401 O.2     1  UNL1       -0.2733
      4 N          62.0454   89.7267   13.1933 N.am    1  UNL1       -0.3043
      5 H          61.2120   89.4886   13.6601 H       1  UNL1        0.1494
      6 C          60.6969   90.1881   11.0210 C.3     1  UNL1        0.1496
      7 N          59.8056   88.9278    7.3648 N.am    1  UNL1       -0.2567
      8 C          58.9712   87.8727    6.7011 C.3     1  UNL1        0.1168
      9 C          59.8340   89.0304    8.8610 C.2     1  UNL1        0.3046
     10 O          59.0280   88.0779    9.6936 O.2     1  UNL1       -0.2526
     11 N          60.6685   90.0855    9.5247 N.am    1  UNL1       -0.2824
     12 H          61.1975   90.7106    8.9783 H       1  UNL1        0.1514
     13 C          60.6117   89.8803    6.5324 C.3     1  UNL1        0.1413
     14 C          59.5370   92.2695    3.6684 C.ar    1  UNL1        0.0875
     15 N          60.5946   91.5123    4.4155 N.ar    1  UNL1       -0.2453
     16 C          59.9285   90.7667    5.5336 C.ar    1  UNL1        0.0858
     17 C          58.4591   91.0630    5.4775 C.ar    1  UNL1        0.0530
     18 S          58.2171   91.9918    4.3248 S.2     1  UNL1       -0.0705
     19 C          59.2012   92.7580    1.1388 C.3     1  UNL1        0.0069
     20 C          59.7600   93.1499    2.4746 C.3     1  UNL1        0.0465
     21 C          60.5419   94.4221    2.6164 C.3     1  UNL1        0.0069
     22 C          59.4161   90.3400   11.7868 C.3     1  UNL1        0.0270
     23 C          58.6013   91.5914   11.6448 C.3     1  UNL1        0.0022
     24 C          58.9500   89.2405   12.6944 C.3     1  UNL1        0.0022
     25 C          64.3215   88.5623   13.6556 C.3     1  UNL1        0.0216
     26 C          64.0609   87.1938   14.2116 C.3     1  UNL1        0.0217
     27 C          63.3692   86.1618   13.3708 C.3     1  UNL1        0.0792
     28 N          63.6059   84.7032   13.6284 N.am    1  UNL1       -0.2720
     29 C          62.8329   83.9961   14.7020 C.2     1  UNL1        0.4019
     30 O          61.8233   84.7476   15.5180 O.2     1  UNL1       -0.2264
     31 H          64.2685   84.2099   13.0928 H       1  UNL1        0.1527
     32 O          63.0696   82.5374   14.9596 O.3     1  UNL1       -0.4296
     33 C          62.1347   81.5134   14.3874 C.3     1  UNL1        0.2382
     34 C          62.4253   80.8959   13.0516 C.ar    1  UNL1        0.0405
     35 C          62.7739   81.7680   11.8821 C.ar    1  UNL1        0.0025
     36 C          63.0645   81.1506   10.5463 C.ar    1  UNL1        0.0205
     37 C          63.0063   79.6610   10.3801 C.ar    1  UNL1        0.0989
     38 N          62.6577   78.7889   11.5496 N.ar    1  UNL1       -0.2425
     39 C          62.3671   79.4064   12.8854 C.ar    1  UNL1        0.0982
     40 C          62.4410   86.5885   12.2726 C.3     1  UNL1        0.0460
     41 C          62.6174   86.0421   10.8868 C.ar    1  UNL1       -0.0205
     42 C          62.0450   86.7782    9.7118 C.ar    1  UNL1       -0.0042
     43 C          62.2214   86.2318    8.3261 C.ar    1  UNL1       -0.0003
     44 C          62.9703   84.9493    8.1153 C.ar    1  UNL1       -0.0000
     45 C          63.5427   84.2132    9.2903 C.ar    1  UNL1       -0.0003
     46 C          63.3662   84.7596   10.6760 C.ar    1  UNL1       -0.0042
     47 C          63.6970   90.7430   14.9223 C.3     1  UNL1        0.0459
     48 C          64.9862   91.4998   14.7992 C.ar    1  UNL1       -0.0205
     49 C          65.6317   92.0853   16.0201 C.ar    1  UNL1       -0.0042
     50 C          66.9209   92.8420   15.8970 C.ar    1  UNL1       -0.0003
     51 C          67.5647   93.0134   14.5531 C.ar    1  UNL1       -0.0000
     52 C          66.9192   92.4279   13.3321 C.ar    1  UNL1       -0.0003
     53 C          65.6300   91.6711   13.4552 C.ar    1  UNL1       -0.0042
@<TRIPOS>BOND
     1    19    20    1
     2    20    21    1
     3    20    14    1
     4    14    15   ar
     5    15    16   ar
     6    16    13    1
     7    13     7    1
     8     7     8    1
     9     7     9   am
    10     9    10    2
    11     9    11   am
    12     6    11    1
    13     6     2    1
    14     2     3    2
    15     2     4   am
    16     4     1    1
    17     1    25    1
    18    25    26    1
    19    27    26    1
    20    27    40    1
    21    40    41    1
    22    41    42   ar
    23    42    43   ar
    24    43    44   ar
    25    44    45   ar
    26    45    46   ar
    27    27    28    1
    28    28    29   am
    29    29    30    2
    30    29    32    1
    31    32    33    1
    32    33    34    1
    33    34    35   ar
    34    35    36   ar
    35    36    37   ar
    36    37    38   ar
    37    38    39   ar
    38     1    47    1
    39    47    48    1
    40    48    49   ar
    41    49    50   ar
    42    50    51   ar
    43    51    52   ar
    44    52    53   ar
    45     6    22    1
    46    22    23    1
    47    22    24    1
    48    16    17   ar
    49    17    18   ar
    50    18    14   ar
    51    46    41   ar
    52    39    34   ar
    53    53    48   ar
    54    11    12    1
    55     4     5    1
    56    28    31    1
