@<TRIPOS>MOLECULE
*****
 18 20 0 0 0
SMALL
GASTEIGER

@<TRIPOS>ATOM
      1 C          64.4043   90.4570   13.7231 C.3     1  UNL1        0.0463
      2 C          63.5130   90.0483   12.5880 C.3     1  UNL1        0.0065
      3 C          62.7530   89.8832   11.3054 C.3     1  UNL1        0.0004
      4 C          63.1947   90.9630   10.3625 C.3     1  UNL1        0.0000
      5 C          64.2277   91.7955   11.0624 C.3     1  UNL1        0.0004
      6 C          64.4244   91.2302   12.4378 C.3     1  UNL1        0.0065
      7 C          64.0294   89.4164   14.7364 C.ar    1  UNL1       -0.0196
      8 C          63.3527   89.8215   16.0122 C.ar    1  UNL1       -0.0033
      9 C          62.9779   88.7809   17.0254 C.ar    1  UNL1        0.0119
     10 C          63.2797   87.3352   16.7627 C.ar    1  UNL1        0.0682
     11 CL         62.9048   86.2946   17.7760 Cl      1  UNL1       -0.0814
     12 C          63.9564   86.9302   15.4868 C.ar    1  UNL1        0.0679
     13 CL         64.2582   85.4845   15.2241 Cl      1  UNL1       -0.0814
     14 C          64.3313   87.9708   14.4736 C.ar    1  UNL1        0.0080
     15 C          65.4259   91.2272   14.5063 C.3     1  UNL1        0.1460
     16 O          65.7215   92.6548   14.1534 O.3     1  UNL1       -0.3534
     17 C          67.5659   92.7252   15.9819 C.3     1  UNL1        0.0346
     18 C          66.8025   93.3986   14.8802 C.3     1  UNL1        0.1423
@<TRIPOS>BOND
     1    17    18    1
     2    18    16    1
     3    16    15    1
     4     1    15    1
     5     1     7    1
     6     7     8   ar
     7     8     9   ar
     8     9    10   ar
     9    10    11    1
    10    10    12   ar
    11    12    13    1
    12    12    14   ar
    13     1     2    1
    14     2     3    1
    15     3     4    1
    16     4     5    1
    17     6     5    1
    18     6     1    1
    19    14     7   ar
    20     6     2    1
@<TRIPOS>MOLECULE
*****
 18 20 0 0 0
SMALL
GASTEIGER

@<TRIPOS>ATOM
      1 C          61.6859   86.9522   10.1129 C.3     1  UNL1        0.0463
      2 C          60.8578   86.4033    8.9891 C.3     1  UNL1        0.0065
      3 C          59.9300   86.1507    7.8379 C.3     1  UNL1        0.0004
      4 C          59.2805   87.4522    7.4716 C.3     1  UNL1        0.0000
      5 C          59.8068   88.5094    8.3965 C.3     1  UNL1        0.0004
      6 C          60.7816   87.8611    9.3344 C.3     1  UNL1        0.0065
      7 C          62.3872   85.7018   10.5543 C.ar    1  UNL1       -0.0196
      8 C          63.0755   84.8316    9.5448 C.ar    1  UNL1       -0.0033
      9 C          63.7767   83.5813    9.9863 C.ar    1  UNL1        0.0119
     10 C          63.7897   83.2011   11.4372 C.ar    1  UNL1        0.0682
     11 CL         64.4909   81.9507   11.8787 Cl      1  UNL1       -0.0814
     12 C          63.1014   84.0713   12.4467 C.ar    1  UNL1        0.0679
     13 CL         63.1144   83.6911   13.8977 Cl      1  UNL1       -0.0814
     14 C          62.4002   85.3216   12.0053 C.ar    1  UNL1        0.0080
     15 C          62.2706   87.9352   11.0834 C.3     1  UNL1        0.1460
     16 O          61.4254   89.0519   11.6207 O.3     1  UNL1       -0.3534
     17 C          62.7802   90.8479   10.3210 C.3     1  UNL1        0.0346
     18 C          61.8674   90.4753   11.4516 C.3     1  UNL1        0.1423
@<TRIPOS>BOND
     1    17    18    1
     2    18    16    1
     3    16    15    1
     4     1    15    1
     5     1     7    1
     6     7     8   ar
     7     8     9   ar
     8     9    10   ar
     9    10    11    1
    10    10    12   ar
    11    12    13    1
    12    12    14   ar
    13     1     2    1
    14     2     3    1
    15     3     4    1
    16     4     5    1
    17     6     5    1
    18     6     1    1
    19    14     7   ar
    20     6     2    1
@<TRIPOS>MOLECULE
*****
 18 20 0 0 0
SMALL
GASTEIGER

@<TRIPOS>ATOM
      1 C          61.5134   87.5305   10.1606 C.3     1  UNL1        0.0463
      2 C          60.7483   88.3546    9.1679 C.3     1  UNL1        0.0065
      3 C          59.8647   88.9021    8.0865 C.3     1  UNL1        0.0004
      4 C          59.1380   87.7519    7.4548 C.3     1  UNL1        0.0000
      5 C          59.5726   86.4934    8.1458 C.3     1  UNL1        0.0004
      6 C          60.5677   86.8659    9.2045 C.3     1  UNL1        0.0065
      7 C          62.2866   88.6118   10.8558 C.ar    1  UNL1       -0.0196
      8 C          62.4216   89.9640   10.2207 C.ar    1  UNL1       -0.0033
      9 C          63.1947   91.0451   10.9159 C.ar    1  UNL1        0.0119
     10 C          63.8329   90.7741   12.2460 C.ar    1  UNL1        0.0682
     11 CL         64.6061   91.8554   12.9412 Cl      1  UNL1       -0.0814
     12 C          63.6979   89.4219   12.8811 C.ar    1  UNL1        0.0679
     13 CL         64.3360   89.1509   14.2112 Cl      1  UNL1       -0.0814
     14 C          62.9247   88.3407   12.1859 C.ar    1  UNL1        0.0080
     15 C          62.0101   86.3309   10.9119 C.3     1  UNL1        0.1460
     16 O          62.6687   85.2035   10.1737 O.3     1  UNL1       -0.3534
     17 C          64.0403   82.9972   10.2080 C.3     1  UNL1        0.0346
     18 C          63.2641   84.0557   10.9341 C.3     1  UNL1        0.1423
@<TRIPOS>BOND
     1    17    18    1
     2    18    16    1
     3    16    15    1
     4     1    15    1
     5     1     7    1
     6     7     8   ar
     7     8     9   ar
     8     9    10   ar
     9    10    11    1
    10    10    12   ar
    11    12    13    1
    12    12    14   ar
    13     1     2    1
    14     2     3    1
    15     3     4    1
    16     4     5    1
    17     6     5    1
    18     6     1    1
    19    14     7   ar
    20     6     2    1
@<TRIPOS>MOLECULE
*****
 18 20 0 0 0
SMALL
GASTEIGER

@<TRIPOS>ATOM
      1 C          62.1392   86.9194   10.0588 C.3     1  UNL1        0.0463
      2 C          62.6088   87.8473   11.1397 C.3     1  UNL1        0.0065
      3 C          62.9591   88.9986   12.0352 C.3     1  UNL1        0.0004
      4 C          62.4869   90.2600   11.3749 C.3     1  UNL1        0.0000
      5 C          61.8448   89.8883   10.0712 C.3     1  UNL1        0.0004
      6 C          61.9201   88.3973    9.9258 C.3     1  UNL1        0.0065
      7 C          62.5739   85.6052   10.6369 C.ar    1  UNL1       -0.0196
      8 C          63.2438   84.5864    9.7633 C.ar    1  UNL1       -0.0033
      9 C          63.6784   83.2723   10.3414 C.ar    1  UNL1        0.0119
     10 C          63.4432   82.9771   11.7931 C.ar    1  UNL1        0.0682
     11 CL         63.8778   81.6629   12.3712 Cl      1  UNL1       -0.0814
     12 C          62.7732   83.9958   12.6667 C.ar    1  UNL1        0.0679
     13 CL         62.5380   83.7006   14.1184 Cl      1  UNL1       -0.0814
     14 C          62.3386   85.3099   12.0886 C.ar    1  UNL1        0.0080
     15 C          61.5187   86.4477    8.7772 C.3     1  UNL1        0.1460
     16 O          60.0410   86.1996    8.7062 O.3     1  UNL1       -0.3534
     17 C          59.2226   88.3379    7.4783 C.3     1  UNL1        0.0346
     18 C          59.2231   86.8453    7.6272 C.3     1  UNL1        0.1423
@<TRIPOS>BOND
     1    17    18    1
     2    18    16    1
     3    16    15    1
     4     1    15    1
     5     1     7    1
     6     7     8   ar
     7     8     9   ar
     8     9    10   ar
     9    10    11    1
    10    10    12   ar
    11    12    13    1
    12    12    14   ar
    13     1     2    1
    14     2     3    1
    15     3     4    1
    16     4     5    1
    17     6     5    1
    18     6     1    1
    19    14     7   ar
    20     6     2    1
@<TRIPOS>MOLECULE
*****
 18 20 0 0 0
SMALL
GASTEIGER

@<TRIPOS>ATOM
      1 C          63.0245   85.4274   12.7042 C.3     1  UNL1        0.0463
      2 C          62.1333   85.7075   11.5306 C.3     1  UNL1        0.0065
      3 C          61.3356   86.2842   10.3987 C.3     1  UNL1        0.0004
      4 C          61.5968   87.7605   10.3524 C.3     1  UNL1        0.0000
      5 C          62.5559   88.0964   11.4558 C.3     1  UNL1        0.0004
      6 C          62.8874   86.8277   12.1839 C.3     1  UNL1        0.0065
      7 C          62.8284   83.9458   12.8323 C.ar    1  UNL1       -0.0196
      8 C          62.4197   83.3544   14.1488 C.ar    1  UNL1       -0.0033
      9 C          62.2236   81.8728   14.2768 C.ar    1  UNL1        0.0119
     10 C          62.4362   80.9826   13.0884 C.ar    1  UNL1        0.0682
     11 CL         62.2400   79.5010   13.2165 Cl      1  UNL1       -0.0814
     12 C          62.8449   81.5740   11.7719 C.ar    1  UNL1        0.0679
     13 CL         63.0575   80.6838   10.5835 Cl      1  UNL1       -0.0814
     14 C          63.0410   83.0556   11.6439 C.ar    1  UNL1        0.0080
     15 C          63.9839   85.6618   13.8333 C.3     1  UNL1        0.1460
     16 O          63.5838   86.5296   14.9894 O.3     1  UNL1       -0.3534
     17 C          62.5258   86.1983   17.3391 C.3     1  UNL1        0.0346
     18 C          63.6703   85.9998   16.3901 C.3     1  UNL1        0.1423
@<TRIPOS>BOND
     1    17    18    1
     2    18    16    1
     3    16    15    1
     4     1    15    1
     5     1     7    1
     6     7     8   ar
     7     8     9   ar
     8     9    10   ar
     9    10    11    1
    10    10    12   ar
    11    12    13    1
    12    12    14   ar
    13     1     2    1
    14     2     3    1
    15     3     4    1
    16     4     5    1
    17     6     5    1
    18     6     1    1
    19    14     7   ar
    20     6     2    1
@<TRIPOS>MOLECULE
*****
 18 20 0 0 0
SMALL
GASTEIGER

@<TRIPOS>ATOM
      1 C          63.7971   90.5150   12.4833 C.3     1  UNL1        0.0463
      2 C          64.2891   91.5243   11.4887 C.3     1  UNL1        0.0065
      3 C          64.9500   92.6406   10.7358 C.3     1  UNL1        0.0004
      4 C          65.8607   93.3636   11.6835 C.3     1  UNL1        0.0000
      5 C          65.7626   92.6940   13.0222 C.3     1  UNL1        0.0004
      6 C          64.7913   91.5573   12.9018 C.3     1  UNL1        0.0065
      7 C          62.8608   89.7284   11.6145 C.ar    1  UNL1       -0.0196
      8 C          62.0471   90.4257   10.5650 C.ar    1  UNL1       -0.0033
      9 C          61.1109   89.6391    9.6963 C.ar    1  UNL1        0.0119
     10 C          60.9883   88.1551    9.8772 C.ar    1  UNL1        0.0682
     11 CL         60.0521   87.3685    9.0084 Cl      1  UNL1       -0.0814
     12 C          61.8020   87.4577   10.9267 C.ar    1  UNL1        0.0679
     13 CL         61.6794   85.9737   11.1076 Cl      1  UNL1       -0.0814
     14 C          62.7382   88.2444   11.7954 C.ar    1  UNL1        0.0080
     15 C          63.6301   89.7788   13.7796 C.3     1  UNL1        0.1460
     16 O          63.0170   90.4702   14.9611 O.3     1  UNL1       -0.3534
     17 C          63.1067   88.6082   16.7708 C.3     1  UNL1        0.0346
     18 C          63.3612   90.0258   16.3519 C.3     1  UNL1        0.1423
@<TRIPOS>BOND
     1    17    18    1
     2    18    16    1
     3    16    15    1
     4     1    15    1
     5     1     7    1
     6     7     8   ar
     7     8     9   ar
     8     9    10   ar
     9    10    11    1
    10    10    12   ar
    11    12    13    1
    12    12    14   ar
    13     1     2    1
    14     2     3    1
    15     3     4    1
    16     4     5    1
    17     6     5    1
    18     6     1    1
    19    14     7   ar
    20     6     2    1
@<TRIPOS>MOLECULE
*****
 18 20 0 0 0
SMALL
GASTEIGER

@<TRIPOS>ATOM
      1 C          61.4315   86.6281    9.9284 C.3     1  UNL1        0.0463
      2 C          62.3224   85.7538    9.0967 C.3     1  UNL1        0.0065
      3 C          62.9883   84.9120    8.0488 C.3     1  UNL1        0.0004
      4 C          62.0983   84.8846    6.8417 C.3     1  UNL1        0.0000
      5 C          60.8823   85.7095    7.1434 C.3     1  UNL1        0.0004
      6 C          61.0208   86.2467    8.5370 C.3     1  UNL1        0.0065
      7 C          62.2504   86.7166   11.1821 C.ar    1  UNL1       -0.0196
      8 C          62.6076   85.4689   11.9342 C.ar    1  UNL1       -0.0033
      9 C          63.4264   85.5574   13.1879 C.ar    1  UNL1        0.0119
     10 C          63.8881   86.8936   13.6894 C.ar    1  UNL1        0.0682
     11 CL         64.7069   86.9820   14.9431 Cl      1  UNL1       -0.0814
     12 C          63.5309   88.1412   12.9373 C.ar    1  UNL1        0.0679
     13 CL         63.9925   89.4774   13.4388 Cl      1  UNL1       -0.0814
     14 C          62.7121   88.0527   11.6837 C.ar    1  UNL1        0.0080
     15 C          60.2562   87.4717   10.3249 C.3     1  UNL1        0.1460
     16 O          59.9291   88.7137    9.5499 O.3     1  UNL1       -0.3534
     17 C          59.5442   90.4660   11.4290 C.3     1  UNL1        0.0346
     18 C          60.2050   90.0630   10.1442 C.3     1  UNL1        0.1423
@<TRIPOS>BOND
     1    17    18    1
     2    18    16    1
     3    16    15    1
     4     1    15    1
     5     1     7    1
     6     7     8   ar
     7     8     9   ar
     8     9    10   ar
     9    10    11    1
    10    10    12   ar
    11    12    13    1
    12    12    14   ar
    13     1     2    1
    14     2     3    1
    15     3     4    1
    16     4     5    1
    17     6     5    1
    18     6     1    1
    19    14     7   ar
    20     6     2    1
@<TRIPOS>MOLECULE
*****
 18 20 0 0 0
SMALL
GASTEIGER

@<TRIPOS>ATOM
      1 C          62.3120   89.0747   11.0850 C.3     1  UNL1        0.0463
      2 C          62.5661   87.6353   11.4219 C.3     1  UNL1        0.0065
      3 C          62.6048   86.1402   11.5376 C.3     1  UNL1        0.0004
      4 C          61.6277   85.5734   10.5507 C.3     1  UNL1        0.0000
      5 C          60.9851   86.7181    9.8249 C.3     1  UNL1        0.0004
      6 C          61.5651   87.9924   10.3633 C.3     1  UNL1        0.0065
      7 C          63.2618   89.7369   12.0387 C.ar    1  UNL1       -0.0196
      8 C          63.6033   89.0726   13.3394 C.ar    1  UNL1       -0.0033
      9 C          64.5530   89.7348   14.2931 C.ar    1  UNL1        0.0119
     10 C          65.1612   91.0613   13.9459 C.ar    1  UNL1        0.0682
     11 CL         66.1110   91.7235   14.8996 Cl      1  UNL1       -0.0814
     12 C          64.8197   91.7256   12.6452 C.ar    1  UNL1        0.0679
     13 CL         65.4279   93.0521   12.2980 Cl      1  UNL1       -0.0814
     14 C          63.8700   91.0634   11.6915 C.ar    1  UNL1        0.0080
     15 C          61.7281   90.2842   10.4169 C.3     1  UNL1        0.1460
     16 O          60.2403   90.4255   10.2892 O.3     1  UNL1       -0.3534
     17 C          59.0105   89.5015   12.3830 C.3     1  UNL1        0.0346
     18 C          59.4014   90.6576   11.5109 C.3     1  UNL1        0.1423
@<TRIPOS>BOND
     1    17    18    1
     2    18    16    1
     3    16    15    1
     4     1    15    1
     5     1     7    1
     6     7     8   ar
     7     8     9   ar
     8     9    10   ar
     9    10    11    1
    10    10    12   ar
    11    12    13    1
    12    12    14   ar
    13     1     2    1
    14     2     3    1
    15     3     4    1
    16     4     5    1
    17     6     5    1
    18     6     1    1
    19    14     7   ar
    20     6     2    1
@<TRIPOS>MOLECULE
*****
 18 20 0 0 0
SMALL
GASTEIGER

@<TRIPOS>ATOM
      1 C          63.1134   84.3891   12.1748 C.3     1  UNL1        0.0463
      2 C          63.5504   85.4779   13.1094 C.3     1  UNL1        0.0065
      3 C          64.1037   86.3295   14.2133 C.3     1  UNL1        0.0004
      4 C          64.7513   85.4232   15.2179 C.3     1  UNL1        0.0000
      5 C          64.5982   84.0114   14.7350 C.3     1  UNL1        0.0004
      6 C          63.8561   84.0451   13.4319 C.3     1  UNL1        0.0065
      7 C          62.4415   85.2103   11.1144 C.ar    1  UNL1       -0.0196
      8 C          62.7697   84.9820    9.6687 C.ar    1  UNL1       -0.0033
      9 C          62.0978   85.8032    8.6084 C.ar    1  UNL1        0.0119
     10 C          61.0977   86.8526    8.9939 C.ar    1  UNL1        0.0682
     11 CL         60.4258   87.6738    7.9335 Cl      1  UNL1       -0.0814
     12 C          60.7696   87.0809   10.4396 C.ar    1  UNL1        0.0679
     13 CL         59.7695   88.1303   10.8251 Cl      1  UNL1       -0.0814
     14 C          61.4415   86.2597   11.4999 C.ar    1  UNL1        0.0080
     15 C          62.9098   83.0152   11.6083 C.3     1  UNL1        0.1460
     16 O          63.5506   81.8297   12.2672 O.3     1  UNL1       -0.3534
     17 C          61.5513   81.1105   13.7624 C.3     1  UNL1        0.0346
     18 C          62.6964   80.7502   12.8630 C.3     1  UNL1        0.1423
@<TRIPOS>BOND
     1    17    18    1
     2    18    16    1
     3    16    15    1
     4     1    15    1
     5     1     7    1
     6     7     8   ar
     7     8     9   ar
     8     9    10   ar
     9    10    11    1
    10    10    12   ar
    11    12    13    1
    12    12    14   ar
    13     1     2    1
    14     2     3    1
    15     3     4    1
    16     4     5    1
    17     6     5    1
    18     6     1    1
    19    14     7   ar
    20     6     2    1
