@<TRIPOS>MOLECULE
*****
 30 32 0 0 0
SMALL
GASTEIGER

@<TRIPOS>ATOM
      1 C          63.8390   87.1777   16.1852 C.3     1  UNL1        0.1040
      2 C          63.8307   89.5087   15.0378 C.2     1  UNL1        0.2489
      3 O          63.2460   90.1170   16.2780 O.2     1  UNL1       -0.2700
      4 N          64.1273   88.0390   14.9914 N.am    1  UNL1       -0.2995
      5 H          64.5111   87.6397   14.1775 H       1  UNL1        0.1498
      6 C          67.0203   95.0407   10.4721 C.3     1  UNL1        0.0540
      7 C          66.2529   93.9219   11.1118 C.ar    1  UNL1        0.0824
      8 C          65.1928   93.0902   10.4528 C.ar    1  UNL1        0.0552
      9 C          64.6955   92.0926   11.4566 C.ar    1  UNL1        0.1650
     10 N          63.6545   91.0161   11.3708 N.ar    1  UNL1       -0.2248
     11 C          63.3662   90.1548   12.5646 C.ar    1  UNL1        0.1066
     12 C          64.1190   90.3700   13.8440 C.ar    1  UNL1        0.0917
     13 C          65.1600   91.4465   13.9298 C.ar    1  UNL1        0.1081
     14 N          65.4482   92.3078   12.7360 N.ar    1  UNL1       -0.2108
     15 N          66.4107   93.4384   12.5229 N.ar    1  UNL1       -0.1680
     16 C          63.4294   85.7471   15.9965 C.3     1  UNL1        0.0606
     17 C          62.3021   85.9418   16.9667 C.3     1  UNL1        0.0175
     18 C          64.5567   85.5523   15.0264 C.3     1  UNL1        0.0175
     19 N          63.0199   84.3165   15.8078 N.3     1  UNL1       -0.2905
     20 H          62.4632   84.0596   16.6230 H       1  UNL1        0.1237
     21 C          62.2274   83.9165   14.5987 C.3     1  UNL1        0.1551
     22 C          62.4934   82.6008   13.9292 C.2     1  UNL1        0.2425
     23 O          62.3117   81.3214   14.6908 O.2     1  UNL1       -0.2733
     24 N          62.9412   82.5645   12.4980 N.am    1  UNL1       -0.2674
     25 C          63.2438   81.3311   11.6998 C.3     1  UNL1        0.0945
     26 C          63.6546   81.7596   10.3223 C.3     1  UNL1        0.0244
     27 C          63.6059   83.2579   10.2691 C.3     1  UNL1        0.0373
     28 C          63.1650   83.7554   11.6138 C.3     1  UNL1        0.1672
     29 C          62.9803   85.1915   12.0054 C.1     1  UNL1        0.0926
     30 N          62.7956   86.6276   12.3972 N.1     1  UNL1       -0.1942
@<TRIPOS>BOND
     1     6     7    1
     2     7     8   ar
     3     8     9   ar
     4     9    10   ar
     5    10    11   ar
     6    11    12   ar
     7    12     2    1
     8     2     3    2
     9     2     4   am
    10     4     1    1
    11     1    16    1
    12    16    17    1
    13    16    18    1
    14    16    19    1
    15    19    21    1
    16    21    22    1
    17    22    23    2
    18    22    24   am
    19    24    25    1
    20    25    26    1
    21    26    27    1
    22    27    28    1
    23    28    29    1
    24    29    30    3
    25    12    13   ar
    26    13    14   ar
    27    14    15   ar
    28    15     7   ar
    29    14     9   ar
    30    28    24    1
    31     4     5    1
    32    19    20    1
@<TRIPOS>MOLECULE
*****
 30 32 0 0 0
SMALL
GASTEIGER

@<TRIPOS>ATOM
      1 C          62.2534   88.2437   11.2603 C.3     1  UNL1        0.1040
      2 C          63.4679   90.3221   12.2378 C.2     1  UNL1        0.2489
      3 O          63.0585   91.1252   11.0389 O.2     1  UNL1       -0.2700
      4 N          63.0653   88.8814   12.3485 N.am    1  UNL1       -0.2995
      5 H          63.3340   88.3543   13.1354 H       1  UNL1        0.1498
      6 C          69.2657   94.1305   15.9125 C.3     1  UNL1        0.0540
      7 C          68.0398   93.3865   15.4725 C.ar    1  UNL1        0.0824
      8 C          66.9151   92.9384   16.3580 C.ar    1  UNL1        0.0552
      9 C          65.9036   92.2349   15.5025 C.ar    1  UNL1        0.1650
     10 N          64.5922   91.5840   15.8286 N.ar    1  UNL1       -0.2248
     11 C          63.7803   90.9463   14.7404 C.ar    1  UNL1        0.1066
     12 C          64.2798   90.9597   13.3261 C.ar    1  UNL1        0.0917
     13 C          65.5912   91.6107   13.0000 C.ar    1  UNL1        0.1081
     14 N          66.4031   92.2483   14.0882 N.ar    1  UNL1       -0.2108
     15 N          67.7234   92.9601   14.0697 N.ar    1  UNL1       -0.1680
     16 C          62.1392   86.7499   11.1869 C.3     1  UNL1        0.0606
     17 C          61.2190   86.8780   10.0094 C.3     1  UNL1        0.0175
     18 C          63.0594   86.6218   12.3645 C.3     1  UNL1        0.0175
     19 N          62.0251   85.2561   11.1136 N.3     1  UNL1       -0.2905
     20 H          61.9932   85.0115   10.1239 H       1  UNL1        0.1237
     21 C          63.0792   84.3917   11.7395 C.3     1  UNL1        0.1551
     22 C          63.1864   82.9449   11.3583 C.2     1  UNL1        0.2425
     23 O          63.6929   82.5630    9.9991 O.2     1  UNL1       -0.2733
     24 N          62.7871   81.8800   12.3364 N.am    1  UNL1       -0.2674
     25 C          62.8390   80.3999   12.0983 C.3     1  UNL1        0.0945
     26 C          62.3498   79.7134   13.3391 C.3     1  UNL1        0.0244
     27 C          61.9955   80.7692   14.3439 C.3     1  UNL1        0.0373
     28 C          62.2657   82.1083   13.7243 C.3     1  UNL1        0.1672
     29 C          62.0521   83.4414   14.3777 C.1     1  UNL1        0.0926
     30 N          61.8386   84.7747   15.0311 N.1     1  UNL1       -0.1942
@<TRIPOS>BOND
     1     6     7    1
     2     7     8   ar
     3     8     9   ar
     4     9    10   ar
     5    10    11   ar
     6    11    12   ar
     7    12     2    1
     8     2     3    2
     9     2     4   am
    10     4     1    1
    11     1    16    1
    12    16    17    1
    13    16    18    1
    14    16    19    1
    15    19    21    1
    16    21    22    1
    17    22    23    2
    18    22    24   am
    19    24    25    1
    20    25    26    1
    21    26    27    1
    22    27    28    1
    23    28    29    1
    24    29    30    3
    25    12    13   ar
    26    13    14   ar
    27    14    15   ar
    28    15     7   ar
    29    14     9   ar
    30    28    24    1
    31     4     5    1
    32    19    20    1
@<TRIPOS>MOLECULE
*****
 30 32 0 0 0
SMALL
GASTEIGER

@<TRIPOS>ATOM
      1 C          62.1556   89.7083   11.5944 C.3     1  UNL1        0.1040
      2 C          62.2020   87.3116   10.5925 C.2     1  UNL1        0.2489
      3 O          61.6483   87.8402    9.3025 O.2     1  UNL1       -0.2700
      4 N          62.4556   88.2457   11.7384 N.am    1  UNL1       -0.2995
      5 H          62.8190   87.8988   12.5851 H       1  UNL1        0.1498
      6 C          62.8879   80.1483   13.7293 C.3     1  UNL1        0.0540
      7 C          62.8627   81.3930   12.8926 C.ar    1  UNL1        0.0824
      8 C          63.2981   81.5023   11.4614 C.ar    1  UNL1        0.0552
      9 C          63.1022   82.9238   11.0244 C.ar    1  UNL1        0.1650
     10 N          63.3586   83.6171    9.7192 N.ar    1  UNL1       -0.2248
     11 C          63.0585   85.0797    9.5753 C.ar    1  UNL1        0.1066
     12 C          62.5021   85.8490   10.7365 C.ar    1  UNL1        0.0917
     13 C          62.2456   85.1557   12.0417 C.ar    1  UNL1        0.1081
     14 N          62.5457   83.6931   12.1857 N.ar    1  UNL1       -0.2108
     15 N          62.3977   82.7471   13.3402 N.ar    1  UNL1       -0.1680
     16 C          63.2740   90.7079   11.6037 C.3     1  UNL1        0.0606
     17 C          63.6144   90.3138   13.0104 C.3     1  UNL1        0.0175
     18 C          62.9335   91.1020   10.1971 C.3     1  UNL1        0.0175
     19 N          64.3923   91.7074   11.6131 N.3     1  UNL1       -0.2905
     20 H          64.0131   92.5771   11.2388 H       1  UNL1        0.1237
     21 C          65.0784   92.0532   12.9014 C.3     1  UNL1        0.1551
     22 C          66.5570   92.3054   12.9196 C.2     1  UNL1        0.2425
     23 O          67.3126   92.4291   11.6297 O.2     1  UNL1       -0.2733
     24 N          67.2799   92.4338   14.2276 N.am    1  UNL1       -0.2674
     25 C          68.7483   92.6849   14.4025 C.3     1  UNL1        0.0945
     26 C          69.0373   92.7400   15.8734 C.3     1  UNL1        0.0244
     27 C          67.7474   92.5230   16.6075 C.3     1  UNL1        0.0373
     28 C          66.6612   92.3338   15.5904 C.3     1  UNL1        0.1672
     29 C          65.2111   92.0877   15.8845 C.1     1  UNL1        0.0926
     30 N          63.7609   91.8416   16.1786 N.1     1  UNL1       -0.1942
@<TRIPOS>BOND
     1     6     7    1
     2     7     8   ar
     3     8     9   ar
     4     9    10   ar
     5    10    11   ar
     6    11    12   ar
     7    12     2    1
     8     2     3    2
     9     2     4   am
    10     4     1    1
    11     1    16    1
    12    16    17    1
    13    16    18    1
    14    16    19    1
    15    19    21    1
    16    21    22    1
    17    22    23    2
    18    22    24   am
    19    24    25    1
    20    25    26    1
    21    26    27    1
    22    27    28    1
    23    28    29    1
    24    29    30    3
    25    12    13   ar
    26    13    14   ar
    27    14    15   ar
    28    15     7   ar
    29    14     9   ar
    30    28    24    1
    31     4     5    1
    32    19    20    1
@<TRIPOS>MOLECULE
*****
 30 32 0 0 0
SMALL
GASTEIGER

@<TRIPOS>ATOM
      1 C          63.3300   87.4936   16.3312 C.3     1  UNL1        0.1040
      2 C          63.8036   89.9804   15.7471 C.2     1  UNL1        0.2489
      3 O          62.8406   90.4140   16.8123 O.2     1  UNL1       -0.2700
      4 N          64.0483   88.5202   15.5066 N.am    1  UNL1       -0.2995
      5 H          64.6803   88.2357   14.8074 H       1  UNL1        0.1498
      6 C          66.3839   94.0352    9.5404 C.3     1  UNL1        0.0540
      7 C          66.0480   93.4474   10.8789 C.ar    1  UNL1        0.0824
      8 C          66.5421   93.9393   12.2070 C.ar    1  UNL1        0.0552
      9 C          65.9585   93.0604   13.2733 C.ar    1  UNL1        0.1650
     10 N          66.0950   93.0689   14.7670 N.ar    1  UNL1       -0.2248
     11 C          65.3767   92.0423   15.5916 C.ar    1  UNL1        0.1066
     12 C          64.5219   91.0071   14.9224 C.ar    1  UNL1        0.0917
     13 C          64.3854   90.9986   13.4287 C.ar    1  UNL1        0.1081
     14 N          65.1037   92.0252   12.6041 N.ar    1  UNL1       -0.2108
     15 N          65.1591   92.2644   11.1244 N.ar    1  UNL1       -0.1680
     16 C          63.3994   86.0441   15.9514 C.3     1  UNL1        0.0606
     17 C          64.5908   86.3281   15.0855 C.3     1  UNL1        0.0175
     18 C          62.2079   85.7602   16.8173 C.3     1  UNL1        0.0175
     19 N          63.4687   84.5947   15.5716 N.3     1  UNL1       -0.2905
     20 H          63.4166   84.0602   16.4388 H       1  UNL1        0.1237
     21 C          62.4450   84.0131   14.6422 C.3     1  UNL1        0.1551
     22 C          62.7060   82.6996   13.9664 C.2     1  UNL1        0.2425
     23 O          62.5988   81.4215   14.7442 O.2     1  UNL1       -0.2733
     24 N          63.0741   82.6642   12.5127 N.am    1  UNL1       -0.2674
     25 C          63.3623   81.4330   11.7058 C.3     1  UNL1        0.0945
     26 C          63.6851   81.8617   10.3051 C.3     1  UNL1        0.0244
     27 C          63.5963   83.3580   10.2462 C.3     1  UNL1        0.0373
     28 C          63.2188   83.8540   11.6106 C.3     1  UNL1        0.1672
     29 C          63.0206   85.2878   12.0038 C.1     1  UNL1        0.0926
     30 N          62.8225   86.7218   12.3971 N.1     1  UNL1       -0.1942
@<TRIPOS>BOND
     1     6     7    1
     2     7     8   ar
     3     8     9   ar
     4     9    10   ar
     5    10    11   ar
     6    11    12   ar
     7    12     2    1
     8     2     3    2
     9     2     4   am
    10     4     1    1
    11     1    16    1
    12    16    17    1
    13    16    18    1
    14    16    19    1
    15    19    21    1
    16    21    22    1
    17    22    23    2
    18    22    24   am
    19    24    25    1
    20    25    26    1
    21    26    27    1
    22    27    28    1
    23    28    29    1
    24    29    30    3
    25    12    13   ar
    26    13    14   ar
    27    14    15   ar
    28    15     7   ar
    29    14     9   ar
    30    28    24    1
    31     4     5    1
    32    19    20    1
@<TRIPOS>MOLECULE
*****
 30 32 0 0 0
SMALL
GASTEIGER

@<TRIPOS>ATOM
      1 C          60.9781   90.0867   10.8973 C.3     1  UNL1        0.1040
      2 C          63.2201   91.0228   11.8177 C.2     1  UNL1        0.2489
      3 O          63.7171   91.2117   10.4151 O.2     1  UNL1       -0.2700
      4 N          61.8507   90.4604   12.0589 N.am    1  UNL1       -0.2995
      5 H          61.5245   90.3364   12.9795 H       1  UNL1        0.1498
      6 C          69.1257   94.0917   15.9806 C.3     1  UNL1        0.0540
      7 C          67.9037   93.4099   15.4403 C.ar    1  UNL1        0.0824
      8 C          66.8850   92.6582   16.2448 C.ar    1  UNL1        0.0552
      9 C          65.8377   92.1438   15.3022 C.ar    1  UNL1        0.1650
     10 N          64.5938   91.3364   15.5278 N.ar    1  UNL1       -0.2248
     11 C          63.7213   90.9628   14.3663 C.ar    1  UNL1        0.1066
     12 C          64.0927   91.3965   12.9793 C.ar    1  UNL1        0.0917
     13 C          65.3366   92.2039   12.7537 C.ar    1  UNL1        0.1081
     14 N          66.2091   92.5775   13.9152 N.ar    1  UNL1       -0.2108
     15 N          67.4859   93.3600   14.0005 N.ar    1  UNL1       -0.1680
     16 C          60.6295   88.6484   10.6534 C.3     1  UNL1        0.0606
     17 C          59.5867   88.7186   11.7292 C.3     1  UNL1        0.0175
     18 C          61.6723   88.5781    9.5775 C.3     1  UNL1        0.0175
     19 N          60.2809   87.2100   10.4094 N.3     1  UNL1       -0.2905
     20 H          59.6933   87.1867    9.5760 H       1  UNL1        0.1237
     21 C          61.3695   86.1996   10.1999 C.3     1  UNL1        0.1551
     22 C          61.9766   85.4962   11.3776 C.2     1  UNL1        0.2425
     23 O          61.5773   85.8840   12.7704 O.2     1  UNL1       -0.2733
     24 N          62.9830   84.4049   11.1623 N.am    1  UNL1       -0.2674
     25 C          63.6716   83.6161   12.2363 C.3     1  UNL1        0.0945
     26 C          64.5917   82.6346   11.5730 C.3     1  UNL1        0.0244
     27 C          64.4717   82.8167   10.0889 C.3     1  UNL1        0.0373
     28 C          63.4775   83.9109    9.8350 C.3     1  UNL1        0.1672
     29 C          63.0524   84.4213    8.4902 C.1     1  UNL1        0.0926
     30 N          62.6273   84.9317    7.1453 N.1     1  UNL1       -0.1942
@<TRIPOS>BOND
     1     6     7    1
     2     7     8   ar
     3     8     9   ar
     4     9    10   ar
     5    10    11   ar
     6    11    12   ar
     7    12     2    1
     8     2     3    2
     9     2     4   am
    10     4     1    1
    11     1    16    1
    12    16    17    1
    13    16    18    1
    14    16    19    1
    15    19    21    1
    16    21    22    1
    17    22    23    2
    18    22    24   am
    19    24    25    1
    20    25    26    1
    21    26    27    1
    22    27    28    1
    23    28    29    1
    24    29    30    3
    25    12    13   ar
    26    13    14   ar
    27    14    15   ar
    28    15     7   ar
    29    14     9   ar
    30    28    24    1
    31     4     5    1
    32    19    20    1
@<TRIPOS>MOLECULE
*****
 30 32 0 0 0
SMALL
GASTEIGER

@<TRIPOS>ATOM
      1 C          63.8825   86.9630   16.0784 C.3     1  UNL1        0.1040
      2 C          63.5718   89.2306   14.8489 C.2     1  UNL1        0.2489
      3 O          62.5815   89.6597   15.8905 O.2     1  UNL1       -0.2700
      4 N          64.2223   87.8823   14.9428 N.am    1  UNL1       -0.2995
      5 H          64.8723   87.6007   14.2591 H       1  UNL1        0.1498
      6 C          66.7901   95.1154   10.7703 C.3     1  UNL1        0.0540
      7 C          66.0445   93.9270   11.3011 C.ar    1  UNL1        0.0824
      8 C          65.1113   93.0505   10.5195 C.ar    1  UNL1        0.0552
      9 C          64.5912   91.9882   11.4421 C.ar    1  UNL1        0.1650
     10 N          63.6396   90.8491   11.2259 N.ar    1  UNL1       -0.2248
     11 C          63.2998   89.9299   12.3615 C.ar    1  UNL1        0.1066
     12 C          63.9117   90.1499   13.7132 C.ar    1  UNL1        0.0917
     13 C          64.8633   91.2890   13.9294 C.ar    1  UNL1        0.1081
     14 N          65.2030   92.2082   12.7939 N.ar    1  UNL1       -0.2108
     15 N          66.1012   93.4064   12.7067 N.ar    1  UNL1       -0.1680
     16 C          63.5945   85.5154   15.8111 C.3     1  UNL1        0.0606
     17 C          64.8202   85.4304   14.9507 C.3     1  UNL1        0.0175
     18 C          62.3687   85.6005   16.6714 C.3     1  UNL1        0.0175
     19 N          63.3064   84.0679   15.5437 N.3     1  UNL1       -0.2905
     20 H          62.8995   83.6861   16.3976 H       1  UNL1        0.1237
     21 C          62.3939   83.6801   14.4181 C.3     1  UNL1        0.1551
     22 C          62.5045   84.3708   13.0911 C.2     1  UNL1        0.2425
     23 O          62.0013   85.7749   12.9322 O.2     1  UNL1       -0.2733
     24 N          63.1182   83.6573   11.9231 N.am    1  UNL1       -0.2674
     25 C          63.2956   84.2163   10.5425 C.3     1  UNL1        0.0945
     26 C          63.9493   83.1640    9.6968 C.3     1  UNL1        0.0244
     27 C          64.1760   81.9546   10.5546 C.3     1  UNL1        0.0373
     28 C          63.6624   82.2594   11.9307 C.3     1  UNL1        0.1672
     29 C          63.6883   81.3298   13.1074 C.1     1  UNL1        0.0926
     30 N          63.7142   80.4000   14.2843 N.1     1  UNL1       -0.1942
@<TRIPOS>BOND
     1     6     7    1
     2     7     8   ar
     3     8     9   ar
     4     9    10   ar
     5    10    11   ar
     6    11    12   ar
     7    12     2    1
     8     2     3    2
     9     2     4   am
    10     4     1    1
    11     1    16    1
    12    16    17    1
    13    16    18    1
    14    16    19    1
    15    19    21    1
    16    21    22    1
    17    22    23    2
    18    22    24   am
    19    24    25    1
    20    25    26    1
    21    26    27    1
    22    27    28    1
    23    28    29    1
    24    29    30    3
    25    12    13   ar
    26    13    14   ar
    27    14    15   ar
    28    15     7   ar
    29    14     9   ar
    30    28    24    1
    31     4     5    1
    32    19    20    1
@<TRIPOS>MOLECULE
*****
 30 32 0 0 0
SMALL
GASTEIGER

@<TRIPOS>ATOM
      1 C          61.0607   90.0401   11.1948 C.3     1  UNL1        0.1040
      2 C          63.2945   91.0662   12.0357 C.2     1  UNL1        0.2489
      3 O          63.7193   91.3043   10.6169 O.2     1  UNL1       -0.2700
      4 N          61.9653   90.4341   12.3246 N.am    1  UNL1       -0.2995
      5 H          61.6865   90.2779   13.2558 H       1  UNL1        0.1498
      6 C          69.3712   94.1096   15.9645 C.3     1  UNL1        0.0540
      7 C          68.1178   93.4473   15.4743 C.ar    1  UNL1        0.0824
      8 C          67.0883   92.7673   16.3274 C.ar    1  UNL1        0.0552
      9 C          66.0081   92.2483   15.4253 C.ar    1  UNL1        0.1650
     10 N          64.7417   91.4951   15.7061 N.ar    1  UNL1       -0.2248
     11 C          63.8372   91.1011   14.5763 C.ar    1  UNL1        0.1066
     12 C          64.1991   91.4603   13.1656 C.ar    1  UNL1        0.0917
     13 C          65.4655   92.2135   12.8848 C.ar    1  UNL1        0.1081
     14 N          66.3699   92.6075   14.0146 N.ar    1  UNL1       -0.2108
     15 N          67.6738   93.3485   14.0449 N.ar    1  UNL1       -0.1680
     16 C          60.7607   88.5919   10.9443 C.3     1  UNL1        0.0606
     17 C          59.5719   88.6807   11.8546 C.3     1  UNL1        0.0175
     18 C          61.9495   88.5031   10.0340 C.3     1  UNL1        0.0175
     19 N          60.4607   87.1437   10.6938 N.3     1  UNL1       -0.2905
     20 H          60.3680   87.0326    9.6842 H       1  UNL1        0.1237
     21 C          61.4189   86.0878   11.1596 C.3     1  UNL1        0.1551
     22 C          62.2235   85.3115   10.1596 C.2     1  UNL1        0.2425
     23 O          62.1234   85.6395    8.6993 O.2     1  UNL1       -0.2733
     24 N          63.1283   84.2072   10.6199 N.am    1  UNL1       -0.2674
     25 C          63.9891   83.3486    9.7414 C.3     1  UNL1        0.0945
     26 C          64.7239   82.3783   10.6181 C.3     1  UNL1        0.0244
     27 C          64.3171   82.6371   12.0385 C.3     1  UNL1        0.0373
     28 C          63.3310   83.7674   12.0397 C.3     1  UNL1        0.1672
     29 C          62.6646   84.3548   13.2482 C.1     1  UNL1        0.0926
     30 N          61.9982   84.9423   14.4569 N.1     1  UNL1       -0.1942
@<TRIPOS>BOND
     1     6     7    1
     2     7     8   ar
     3     8     9   ar
     4     9    10   ar
     5    10    11   ar
     6    11    12   ar
     7    12     2    1
     8     2     3    2
     9     2     4   am
    10     4     1    1
    11     1    16    1
    12    16    17    1
    13    16    18    1
    14    16    19    1
    15    19    21    1
    16    21    22    1
    17    22    23    2
    18    22    24   am
    19    24    25    1
    20    25    26    1
    21    26    27    1
    22    27    28    1
    23    28    29    1
    24    29    30    3
    25    12    13   ar
    26    13    14   ar
    27    14    15   ar
    28    15     7   ar
    29    14     9   ar
    30    28    24    1
    31     4     5    1
    32    19    20    1
@<TRIPOS>MOLECULE
*****
 30 32 0 0 0
SMALL
GASTEIGER

@<TRIPOS>ATOM
      1 C          64.0279   87.6648   15.7100 C.3     1  UNL1        0.1040
      2 C          64.5101   85.3219   14.6959 C.2     1  UNL1        0.2489
      3 O          65.9835   85.5930   14.7701 O.2     1  UNL1       -0.2700
      4 N          63.5323   86.3577   15.1658 N.am    1  UNL1       -0.2995
      5 H          62.5652   86.1798   15.1171 H       1  UNL1        0.1498
      6 C          62.8077   79.5443    9.6615 C.3     1  UNL1        0.0540
      7 C          63.0166   80.4734   10.8204 C.ar    1  UNL1        0.0824
      8 C          62.6302   80.2068   12.2451 C.ar    1  UNL1        0.0552
      9 C          63.0233   81.4009   13.0633 C.ar    1  UNL1        0.1650
     10 N          62.8895   81.7032   14.5264 N.ar    1  UNL1       -0.2248
     11 C          63.3851   83.0101   15.0706 C.ar    1  UNL1        0.1066
     12 C          64.0145   84.0149   14.1516 C.ar    1  UNL1        0.0917
     13 C          64.1483   83.7126   12.6885 C.ar    1  UNL1        0.1081
     14 N          63.6527   82.4056   12.1444 N.ar    1  UNL1       -0.2108
     15 N          63.6486   81.8324   10.7582 N.ar    1  UNL1       -0.1680
     16 C          63.5199   88.9557   15.1396 C.3     1  UNL1        0.0606
     17 C          63.1140   89.4027   16.5127 C.3     1  UNL1        0.0175
     18 C          63.9258   88.5086   13.7665 C.3     1  UNL1        0.0175
     19 N          63.0119   90.2466   14.5692 N.3     1  UNL1       -0.2905
     20 H          63.0358   90.9318   15.3243 H       1  UNL1        0.1237
     21 C          63.7048   90.8718   13.3949 C.3     1  UNL1        0.1551
     22 C          64.7745   91.9000   13.6155 C.2     1  UNL1        0.2425
     23 O          65.2937   92.1571   14.9991 O.2     1  UNL1       -0.2733
     24 N          65.3250   92.6710   12.4526 N.am    1  UNL1       -0.2674
     25 C          66.3907   93.7245   12.5182 C.3     1  UNL1        0.0945
     26 C          66.6308   94.2285   11.1260 C.3     1  UNL1        0.0244
     27 C          65.7134   93.4865   10.1998 C.3     1  UNL1        0.0373
     28 C          64.9063   92.5239   11.0196 C.3     1  UNL1        0.1672
     29 C          63.8638   91.5799   10.4982 C.1     1  UNL1        0.0926
     30 N          62.8213   90.6359    9.9766 N.1     1  UNL1       -0.1942
@<TRIPOS>BOND
     1     6     7    1
     2     7     8   ar
     3     8     9   ar
     4     9    10   ar
     5    10    11   ar
     6    11    12   ar
     7    12     2    1
     8     2     3    2
     9     2     4   am
    10     4     1    1
    11     1    16    1
    12    16    17    1
    13    16    18    1
    14    16    19    1
    15    19    21    1
    16    21    22    1
    17    22    23    2
    18    22    24   am
    19    24    25    1
    20    25    26    1
    21    26    27    1
    22    27    28    1
    23    28    29    1
    24    29    30    3
    25    12    13   ar
    26    13    14   ar
    27    14    15   ar
    28    15     7   ar
    29    14     9   ar
    30    28    24    1
    31     4     5    1
    32    19    20    1
@<TRIPOS>MOLECULE
*****
 30 32 0 0 0
SMALL
GASTEIGER

@<TRIPOS>ATOM
      1 C          65.5439   91.4311   15.0510 C.3     1  UNL1        0.1040
      2 C          64.0395   89.3498   14.6576 C.2     1  UNL1        0.2489
      3 O          63.0557   89.8708   15.6629 O.2     1  UNL1       -0.2700
      4 N          65.2835   90.1299   14.3516 N.am    1  UNL1       -0.2995
      5 H          65.9292   89.7879   13.6918 H       1  UNL1        0.1498
      6 C          63.8940   81.6562   13.1048 C.3     1  UNL1        0.0540
      7 C          63.7838   83.1515   13.1500 C.ar    1  UNL1        0.0824
      8 C          63.1433   84.0203   12.1084 C.ar    1  UNL1        0.0552
      9 C          63.2584   85.4462   12.5594 C.ar    1  UNL1        0.1650
     10 N          62.8072   86.7349   11.9384 N.ar    1  UNL1       -0.2248
     11 C          63.0676   88.0360   12.6377 C.ar    1  UNL1        0.1066
     12 C          63.7791   88.0485   13.9582 C.ar    1  UNL1        0.0917
     13 C          64.2303   86.7599   14.5792 C.ar    1  UNL1        0.1081
     14 N          63.9700   85.4587   13.8798 N.ar    1  UNL1       -0.2108
     15 N          64.2946   84.0405   14.2448 N.ar    1  UNL1       -0.1680
     16 C          66.1602   92.5751   14.3017 C.3     1  UNL1        0.0606
     17 C          66.7955   93.0633   15.5698 C.3     1  UNL1        0.0175
     18 C          65.5249   92.0869   13.0337 C.3     1  UNL1        0.0175
     19 N          66.7765   93.7191   13.5525 N.3     1  UNL1       -0.2905
     20 H          67.7872   93.6289   13.6566 H       1  UNL1        0.1237
     21 C          66.5056   93.8886   12.0869 C.3     1  UNL1        0.1551
     22 C          66.3531   95.2633   11.5065 C.2     1  UNL1        0.2425
     23 O          65.7514   96.3628   12.3304 O.2     1  UNL1       -0.2733
     24 N          66.8024   95.5385   10.1020 N.am    1  UNL1       -0.2674
     25 C          66.7141   96.8559    9.3902 C.3     1  UNL1        0.0945
     26 C          67.2759   96.6762    8.0111 C.3     1  UNL1        0.0244
     27 C          67.7114   95.2477    7.8705 C.3     1  UNL1        0.0373
     28 C          67.4188   94.5445    9.1627 C.3     1  UNL1        0.1672
     29 C          67.6941   93.1010    9.4630 C.1     1  UNL1        0.0926
     30 N          67.9694   91.6573    9.7634 N.1     1  UNL1       -0.1942
@<TRIPOS>BOND
     1     6     7    1
     2     7     8   ar
     3     8     9   ar
     4     9    10   ar
     5    10    11   ar
     6    11    12   ar
     7    12     2    1
     8     2     3    2
     9     2     4   am
    10     4     1    1
    11     1    16    1
    12    16    17    1
    13    16    18    1
    14    16    19    1
    15    19    21    1
    16    21    22    1
    17    22    23    2
    18    22    24   am
    19    24    25    1
    20    25    26    1
    21    26    27    1
    22    27    28    1
    23    28    29    1
    24    29    30    3
    25    12    13   ar
    26    13    14   ar
    27    14    15   ar
    28    15     7   ar
    29    14     9   ar
    30    28    24    1
    31     4     5    1
    32    19    20    1
