@<TRIPOS>MOLECULE
*****
 31 35 0 0 0
SMALL
GASTEIGER

@<TRIPOS>ATOM
      1 C          64.8095   91.6229   12.9739 C.3     1  UNL1        0.1688
      2 C          63.7134   91.7384   11.9564 C.3     1  UNL1        0.2354
      3 O          63.1183   90.3755   11.7596 O.2     1  UNL1       -0.4580
      4 C          63.8465   89.4179   12.6555 C.2     1  UNL1        0.2207
      5 N          64.8917   90.1888   13.4060 N.2     1  UNL1       -0.2318
      6 F          69.3221   92.3941   16.8523 F       1  UNL1       -0.2042
      7 C          68.1939   92.2013   15.8827 C.ar    1  UNL1        0.1401
      8 C          66.7767   92.4004   16.3318 C.ar    1  UNL1        0.0294
      9 C          65.6485   92.2076   15.3622 C.ar    1  UNL1        0.0000
     10 C          65.9376   91.8157   13.9435 C.ar    1  UNL1        0.0034
     11 C          67.3548   91.6166   13.4944 C.ar    1  UNL1        0.0000
     12 C          68.4830   91.8094   14.4640 C.ar    1  UNL1        0.0294
     13 C          63.5768   87.9476   12.7791 C.ar    1  UNL1        0.0528
     14 C          64.1423   87.1759   13.9345 C.ar    1  UNL1        0.0046
     15 C          63.8727   85.7056   14.0582 C.ar    1  UNL1        0.0002
     16 C          63.0376   85.0068   13.0265 C.ar    1  UNL1        0.0022
     17 C          62.4721   85.7784   11.8711 C.ar    1  UNL1        0.0002
     18 C          62.7418   87.2488   11.7474 C.ar    1  UNL1        0.0046
     19 C          62.7679   83.5364   13.1501 C.ar    1  UNL1        0.0275
     20 C          62.0172   83.0088   14.3367 C.ar    1  UNL1        0.0022
     21 C          61.7475   81.5385   14.4604 C.ar    1  UNL1        0.0001
     22 C          62.2285   80.5957   13.3975 C.ar    1  UNL1        0.0023
     23 C          62.9792   81.1234   12.2109 C.ar    1  UNL1        0.0296
     24 C          63.2489   82.5937   12.0872 C.ar    1  UNL1        0.1401
     25 F          63.9997   83.1213   10.9006 F       1  UNL1       -0.2042
     26 C          64.9631   93.0973   12.7446 C.3     1  UNL1        0.1595
     27 N          65.8324   93.5962   11.6286 N.ar    1  UNL1       -0.2277
     28 C          66.3539   94.9942   11.4747 C.ar    1  UNL1        0.1973
     29 N          67.1767   95.0466   10.2216 N.ar    1  UNL1       -0.2007
     30 C          67.1637   93.6811    9.6011 C.ar    1  UNL1        0.2210
     31 N          66.3329   92.7846   10.4707 N.ar    1  UNL1       -0.1451
@<TRIPOS>BOND
     1     6     7    1
     2     7     8   ar
     3     8     9   ar
     4     9    10   ar
     5    10     1    1
     6     1    26    1
     7    26    27    1
     8    27    28   ar
     9    28    29   ar
    10    29    30   ar
    11    30    31   ar
    12     1     2    1
    13     2     3    1
    14     3     4    1
    15     4    13    1
    16    13    14   ar
    17    14    15   ar
    18    15    16   ar
    19    16    19    1
    20    19    20   ar
    21    20    21   ar
    22    21    22   ar
    23    22    23   ar
    24    23    24   ar
    25    24    25    1
    26    16    17   ar
    27    17    18   ar
    28     4     5    2
    29    10    11   ar
    30    11    12   ar
    31    12     7   ar
    32     5     1    1
    33    31    27   ar
    34    18    13   ar
    35    24    19   ar
@<TRIPOS>MOLECULE
*****
 31 35 0 0 0
SMALL
GASTEIGER

@<TRIPOS>ATOM
      1 C          64.7605   91.6044   12.8912 C.3     1  UNL1        0.1688
      2 C          63.6718   91.7113   11.8649 C.3     1  UNL1        0.2354
      3 O          63.0816   90.3459   11.6713 O.2     1  UNL1       -0.4580
      4 C          63.8055   89.3952   12.5780 C.2     1  UNL1        0.2207
      5 N          64.8431   90.1729   13.3319 N.2     1  UNL1       -0.2318
      6 F          69.2421   92.4090   16.7986 F       1  UNL1       -0.2042
      7 C          68.1217   92.2078   15.8217 C.ar    1  UNL1        0.1401
      8 C          68.4217   91.7980   14.4103 C.ar    1  UNL1        0.0294
      9 C          67.3013   91.5969   13.4335 C.ar    1  UNL1        0.0000
     10 C          65.8809   91.8055   13.8680 C.ar    1  UNL1        0.0034
     11 C          65.5809   92.2153   15.2794 C.ar    1  UNL1        0.0000
     12 C          66.7013   92.4165   16.2562 C.ar    1  UNL1        0.0294
     13 C          63.5386   87.9248   12.7079 C.ar    1  UNL1        0.0528
     14 C          62.6965   87.2222   11.6847 C.ar    1  UNL1        0.0046
     15 C          62.4296   85.7519   11.8145 C.ar    1  UNL1        0.0002
     16 C          63.0048   84.9841   12.9677 C.ar    1  UNL1        0.0022
     17 C          63.8469   85.6868   13.9909 C.ar    1  UNL1        0.0002
     18 C          64.1139   87.1572   13.8611 C.ar    1  UNL1        0.0046
     19 C          62.7380   83.5138   13.0976 C.ar    1  UNL1        0.0275
     20 C          63.0087   82.5974   11.9413 C.ar    1  UNL1        0.0022
     21 C          62.7419   81.1271   12.0712 C.ar    1  UNL1        0.0001
     22 C          62.2043   80.5731   13.3573 C.ar    1  UNL1        0.0023
     23 C          61.9335   81.4896   14.5135 C.ar    1  UNL1        0.0296
     24 C          62.2003   82.9599   14.3837 C.ar    1  UNL1        0.1401
     25 F          61.9296   83.8763   15.5399 F       1  UNL1       -0.2042
     26 C          64.9120   93.0778   12.6546 C.3     1  UNL1        0.1595
     27 N          65.8148   93.5735   11.5641 N.ar    1  UNL1       -0.2277
     28 C          66.3482   94.9687   11.4269 C.ar    1  UNL1        0.1973
     29 N          67.2057   95.0183   10.1972 N.ar    1  UNL1       -0.2007
     30 C          67.2024   93.6538    9.5744 C.ar    1  UNL1        0.2210
     31 N          66.3427   92.7607   10.4191 N.ar    1  UNL1       -0.1451
@<TRIPOS>BOND
     1     6     7    1
     2     7     8   ar
     3     8     9   ar
     4     9    10   ar
     5    10     1    1
     6     1    26    1
     7    26    27    1
     8    27    28   ar
     9    28    29   ar
    10    29    30   ar
    11    30    31   ar
    12     1     2    1
    13     2     3    1
    14     3     4    1
    15     4    13    1
    16    13    14   ar
    17    14    15   ar
    18    15    16   ar
    19    16    19    1
    20    19    20   ar
    21    20    21   ar
    22    21    22   ar
    23    22    23   ar
    24    23    24   ar
    25    24    25    1
    26    16    17   ar
    27    17    18   ar
    28     4     5    2
    29    10    11   ar
    30    11    12   ar
    31    12     7   ar
    32     5     1    1
    33    31    27   ar
    34    18    13   ar
    35    24    19   ar
@<TRIPOS>MOLECULE
*****
 31 35 0 0 0
SMALL
GASTEIGER

@<TRIPOS>ATOM
      1 C          61.4242   87.7074   11.0208 C.3     1  UNL1        0.1688
      2 C          60.5209   88.8908   11.2044 C.3     1  UNL1        0.2354
      3 O          61.2988   89.9626   11.9090 O.2     1  UNL1       -0.4580
      4 C          62.6827   89.4416   12.1607 C.2     1  UNL1        0.2207
      5 N          62.7602   88.0479   11.6117 N.2     1  UNL1       -0.2318
      6 F          64.0340   82.4598    9.7356 F       1  UNL1       -0.2042
      7 C          63.3816   83.7717   10.0569 C.ar    1  UNL1        0.1401
      8 C          62.9178   84.0563   11.4547 C.ar    1  UNL1        0.0294
      9 C          62.2653   85.3682   11.7760 C.ar    1  UNL1        0.0000
     10 C          62.0767   86.3955   10.6995 C.ar    1  UNL1        0.0034
     11 C          62.5405   86.1110    9.3017 C.ar    1  UNL1        0.0000
     12 C          63.1930   84.7991    8.9804 C.ar    1  UNL1        0.0294
     13 C          63.7939   90.1841   12.8417 C.ar    1  UNL1        0.0528
     14 C          64.2972   89.7213   14.1768 C.ar    1  UNL1        0.0046
     15 C          65.4084   90.4637   14.8580 C.ar    1  UNL1        0.0002
     16 C          66.0164   91.6690   14.2040 C.ar    1  UNL1        0.0022
     17 C          65.5131   92.1318   12.8689 C.ar    1  UNL1        0.0002
     18 C          64.4018   91.3894   12.1877 C.ar    1  UNL1        0.0046
     19 C          67.1276   92.4115   14.8851 C.ar    1  UNL1        0.0275
     20 C          68.1060   91.6710   15.7478 C.ar    1  UNL1        0.0022
     21 C          69.2172   92.4134   16.4289 C.ar    1  UNL1        0.0001
     22 C          69.3501   93.8964   16.2473 C.ar    1  UNL1        0.0023
     23 C          68.3717   94.6369   15.3845 C.ar    1  UNL1        0.0296
     24 C          67.2605   93.8945   14.7034 C.ar    1  UNL1        0.1401
     25 F          66.2821   94.6351   13.8407 F       1  UNL1       -0.2042
     26 C          60.2246   87.0927   10.3626 C.3     1  UNL1        0.1595
     27 N          59.7472   87.6117    9.0387 N.ar    1  UNL1       -0.2277
     28 C          58.9459   86.8454    8.0283 C.ar    1  UNL1        0.1973
     29 N          58.6908   87.7482    6.8579 N.ar    1  UNL1       -0.2007
     30 C          59.3343   89.0724    7.1449 C.ar    1  UNL1        0.2210
     31 N          59.9872   88.9881    8.4928 N.ar    1  UNL1       -0.1451
@<TRIPOS>BOND
     1     6     7    1
     2     7     8   ar
     3     8     9   ar
     4     9    10   ar
     5    10     1    1
     6     1    26    1
     7    26    27    1
     8    27    28   ar
     9    28    29   ar
    10    29    30   ar
    11    30    31   ar
    12     1     2    1
    13     2     3    1
    14     3     4    1
    15     4    13    1
    16    13    14   ar
    17    14    15   ar
    18    15    16   ar
    19    16    19    1
    20    19    20   ar
    21    20    21   ar
    22    21    22   ar
    23    22    23   ar
    24    23    24   ar
    25    24    25    1
    26    16    17   ar
    27    17    18   ar
    28     4     5    2
    29    10    11   ar
    30    11    12   ar
    31    12     7   ar
    32     5     1    1
    33    31    27   ar
    34    18    13   ar
    35    24    19   ar
@<TRIPOS>MOLECULE
*****
 31 35 0 0 0
SMALL
GASTEIGER

@<TRIPOS>ATOM
      1 C          65.2335   91.3756   14.2015 C.3     1  UNL1        0.1688
      2 C          64.6879   91.2269   15.5908 C.3     1  UNL1        0.2354
      3 O          64.1819   89.8229   15.7422 O.2     1  UNL1       -0.4580
      4 C          64.4148   89.1040   14.4465 C.2     1  UNL1        0.2207
      5 N          65.0648   90.0635   13.4943 N.2     1  UNL1       -0.2318
      6 F          67.6635   93.1450    9.0088 F       1  UNL1       -0.2042
      7 C          67.0560   92.7026   10.3070 C.ar    1  UNL1        0.1401
      8 C          67.9270   92.1323   11.3868 C.ar    1  UNL1        0.0294
      9 C          67.3195   91.6899   12.6849 C.ar    1  UNL1        0.0000
     10 C          65.8410   91.8179   12.9033 C.ar    1  UNL1        0.0034
     11 C          64.9701   92.3883   11.8235 C.ar    1  UNL1        0.0000
     12 C          65.5776   92.8307   10.5253 C.ar    1  UNL1        0.0294
     13 C          64.0601   87.6761   14.1543 C.ar    1  UNL1        0.0528
     14 C          64.3972   86.6017   15.1453 C.ar    1  UNL1        0.0046
     15 C          64.0425   85.1739   14.8532 C.ar    1  UNL1        0.0002
     16 C          63.3506   84.8203   13.5701 C.ar    1  UNL1        0.0022
     17 C          63.0135   85.8947   12.5791 C.ar    1  UNL1        0.0002
     18 C          63.3682   87.3226   12.8712 C.ar    1  UNL1        0.0046
     19 C          62.9959   83.3924   13.2779 C.ar    1  UNL1        0.0275
     20 C          62.2108   82.5952   14.2769 C.ar    1  UNL1        0.0022
     21 C          61.8560   81.1674   13.9849 C.ar    1  UNL1        0.0001
     22 C          62.2864   80.5368   12.6937 C.ar    1  UNL1        0.0023
     23 C          63.0715   81.3340   11.6947 C.ar    1  UNL1        0.0296
     24 C          63.4262   82.7618   11.9867 C.ar    1  UNL1        0.1401
     25 F          64.2113   83.5590   10.9877 F       1  UNL1       -0.2042
     26 C          65.5293   92.7801   14.6373 C.3     1  UNL1        0.1595
     27 N          66.8713   93.1192   15.2151 N.ar    1  UNL1       -0.2277
     28 C          67.6363   92.2972   16.2097 C.ar    1  UNL1        0.1973
     29 N          68.9218   93.0099   16.5091 N.ar    1  UNL1       -0.2007
     30 C          68.9513   94.2724   15.6995 C.ar    1  UNL1        0.2210
     31 N          67.6840   94.3399   14.8998 N.ar    1  UNL1       -0.1451
@<TRIPOS>BOND
     1     6     7    1
     2     7     8   ar
     3     8     9   ar
     4     9    10   ar
     5    10     1    1
     6     1    26    1
     7    26    27    1
     8    27    28   ar
     9    28    29   ar
    10    29    30   ar
    11    30    31   ar
    12     1     2    1
    13     2     3    1
    14     3     4    1
    15     4    13    1
    16    13    14   ar
    17    14    15   ar
    18    15    16   ar
    19    16    19    1
    20    19    20   ar
    21    20    21   ar
    22    21    22   ar
    23    22    23   ar
    24    23    24   ar
    25    24    25    1
    26    16    17   ar
    27    17    18   ar
    28     4     5    2
    29    10    11   ar
    30    11    12   ar
    31    12     7   ar
    32     5     1    1
    33    31    27   ar
    34    18    13   ar
    35    24    19   ar
@<TRIPOS>MOLECULE
*****
 31 35 0 0 0
SMALL
GASTEIGER

@<TRIPOS>ATOM
      1 C          60.6268   88.7415    9.1305 C.3     1  UNL1        0.1688
      2 C          59.8331   89.9594    9.5001 C.3     1  UNL1        0.2354
      3 O          60.6517   90.7728   10.4584 O.2     1  UNL1       -0.4580
      4 C          61.9512   90.0576   10.6811 C.2     1  UNL1        0.2207
      5 N          61.9359   88.8022    9.8604 N.2     1  UNL1       -0.2318
      6 F          62.8020   83.5939    6.9463 F       1  UNL1       -0.2042
      7 C          62.2582   84.8808    7.4923 C.ar    1  UNL1        0.1401
      8 C          63.0620   85.6766    8.4774 C.ar    1  UNL1        0.0294
      9 C          62.5182   86.9635    9.0235 C.ar    1  UNL1        0.0000
     10 C          61.1706   87.4546    8.5844 C.ar    1  UNL1        0.0034
     11 C          60.3668   86.6587    7.5993 C.ar    1  UNL1        0.0000
     12 C          60.9106   85.3718    7.0533 C.ar    1  UNL1        0.0294
     13 C          63.0697   90.5172   11.5686 C.ar    1  UNL1        0.0528
     14 C          63.9567   91.6460   11.1338 C.ar    1  UNL1        0.0046
     15 C          65.0752   92.1056   12.0212 C.ar    1  UNL1        0.0002
     16 C          65.3068   91.4365   13.3436 C.ar    1  UNL1        0.0022
     17 C          64.4198   90.3077   13.7785 C.ar    1  UNL1        0.0002
     18 C          63.3012   89.8480   12.8910 C.ar    1  UNL1        0.0046
     19 C          66.4253   91.8961   14.2312 C.ar    1  UNL1        0.0275
     20 C          66.1359   92.3355   15.6358 C.ar    1  UNL1        0.0022
     21 C          67.2543   92.7951   16.5234 C.ar    1  UNL1        0.0001
     22 C          68.6622   92.8152   16.0063 C.ar    1  UNL1        0.0023
     23 C          68.9516   92.3758   14.6016 C.ar    1  UNL1        0.0296
     24 C          67.8332   91.9162   13.7140 C.ar    1  UNL1        0.1401
     25 F          68.1226   91.4768   12.3093 F       1  UNL1       -0.2042
     26 C          59.4315   88.4117    8.2865 C.3     1  UNL1        0.1595
     27 N          59.0547   89.3018    7.1394 N.ar    1  UNL1       -0.2277
     28 C          60.0067   90.0555    6.2586 C.ar    1  UNL1        0.1973
     29 N          59.2001   90.8139    5.2465 N.ar    1  UNL1       -0.2007
     30 C          57.7497   90.5290    5.5018 C.ar    1  UNL1        0.2210
     31 N          57.6598   89.5944    6.6717 N.ar    1  UNL1       -0.1451
@<TRIPOS>BOND
     1     6     7    1
     2     7     8   ar
     3     8     9   ar
     4     9    10   ar
     5    10     1    1
     6     1    26    1
     7    26    27    1
     8    27    28   ar
     9    28    29   ar
    10    29    30   ar
    11    30    31   ar
    12     1     2    1
    13     2     3    1
    14     3     4    1
    15     4    13    1
    16    13    14   ar
    17    14    15   ar
    18    15    16   ar
    19    16    19    1
    20    19    20   ar
    21    20    21   ar
    22    21    22   ar
    23    22    23   ar
    24    23    24   ar
    25    24    25    1
    26    16    17   ar
    27    17    18   ar
    28     4     5    2
    29    10    11   ar
    30    11    12   ar
    31    12     7   ar
    32     5     1    1
    33    31    27   ar
    34    18    13   ar
    35    24    19   ar
@<TRIPOS>MOLECULE
*****
 31 35 0 0 0
SMALL
GASTEIGER

@<TRIPOS>ATOM
      1 C          60.0219   88.5514    8.8245 C.3     1  UNL1        0.1688
      2 C          59.1628   87.6627    7.9747 C.3     1  UNL1        0.2354
      3 O          58.9849   88.3271    6.6417 O.2     1  UNL1       -0.4580
      4 C          59.7340   89.6264    6.6677 C.2     1  UNL1        0.2207
      5 N          60.3749   89.7650    8.0167 N.2     1  UNL1       -0.2318
      6 F          63.3066   91.2073   13.0856 F       1  UNL1       -0.2042
      7 C          62.4854   90.5433   12.0204 C.ar    1  UNL1        0.1401
      8 C          63.0742   90.2992   10.6626 C.ar    1  UNL1        0.0294
      9 C          62.2530   89.6352    9.5973 C.ar    1  UNL1        0.0000
     10 C          60.8430   89.2153    9.8898 C.ar    1  UNL1        0.0034
     11 C          60.2542   89.4594   11.2476 C.ar    1  UNL1        0.0000
     12 C          61.0754   90.1234   12.3129 C.ar    1  UNL1        0.0294
     13 C          59.8261   90.6136    5.5422 C.ar    1  UNL1        0.0528
     14 C          61.1385   90.8466    4.8543 C.ar    1  UNL1        0.0046
     15 C          61.2307   91.8338    3.7288 C.ar    1  UNL1        0.0002
     16 C          60.0103   92.5882    3.2911 C.ar    1  UNL1        0.0022
     17 C          58.6978   92.3553    3.9790 C.ar    1  UNL1        0.0002
     18 C          58.6056   91.3680    5.1045 C.ar    1  UNL1        0.0046
     19 C          60.1023   93.5755    2.1656 C.ar    1  UNL1        0.0275
     20 C          60.2132   95.0419    2.4614 C.ar    1  UNL1        0.0022
     21 C          60.3053   96.0292    1.3360 C.ar    1  UNL1        0.0001
     22 C          60.2864   95.5501   -0.0854 C.ar    1  UNL1        0.0023
     23 C          60.1755   94.0838   -0.3812 C.ar    1  UNL1        0.0296
     24 C          60.0835   93.0964    0.7443 C.ar    1  UNL1        0.1401
     25 F          59.9726   91.6301    0.4484 F       1  UNL1       -0.2042
     26 C          59.8405   87.4766    9.8551 C.3     1  UNL1        0.1595
     27 N          60.9633   86.5283   10.1554 N.ar    1  UNL1       -0.2277
     28 C          61.8545   85.8689    9.1450 C.ar    1  UNL1        0.1973
     29 N          62.8340   85.0060    9.8840 N.ar    1  UNL1       -0.2007
     30 C          62.5481   85.1321   11.3511 C.ar    1  UNL1        0.2210
     31 N          61.3919   86.0730   11.5189 N.ar    1  UNL1       -0.1451
@<TRIPOS>BOND
     1     6     7    1
     2     7     8   ar
     3     8     9   ar
     4     9    10   ar
     5    10     1    1
     6     1    26    1
     7    26    27    1
     8    27    28   ar
     9    28    29   ar
    10    29    30   ar
    11    30    31   ar
    12     1     2    1
    13     2     3    1
    14     3     4    1
    15     4    13    1
    16    13    14   ar
    17    14    15   ar
    18    15    16   ar
    19    16    19    1
    20    19    20   ar
    21    20    21   ar
    22    21    22   ar
    23    22    23   ar
    24    23    24   ar
    25    24    25    1
    26    16    17   ar
    27    17    18   ar
    28     4     5    2
    29    10    11   ar
    30    11    12   ar
    31    12     7   ar
    32     5     1    1
    33    31    27   ar
    34    18    13   ar
    35    24    19   ar
@<TRIPOS>MOLECULE
*****
 31 35 0 0 0
SMALL
GASTEIGER

@<TRIPOS>ATOM
      1 C          63.1276   85.2777   12.1839 C.3     1  UNL1        0.1688
      2 C          63.2674   86.5581   12.9527 C.3     1  UNL1        0.2354
      3 O          62.6088   87.6486   12.1606 O.2     1  UNL1       -0.4580
      4 C          62.0620   87.0420   10.9024 C.2     1  UNL1        0.2207
      5 N          62.3826   85.5768   10.9168 N.2     1  UNL1       -0.2318
      6 F          63.1942   79.6604   10.0766 F       1  UNL1       -0.2042
      7 C          63.1776   81.0647   10.6034 C.ar    1  UNL1        0.1401
      8 C          63.9277   82.1452    9.8825 C.ar    1  UNL1        0.0294
      9 C          63.9110   83.5495   10.4093 C.ar    1  UNL1        0.0000
     10 C          63.1442   83.8734   11.6571 C.ar    1  UNL1        0.0034
     11 C          62.3941   82.7929   12.3781 C.ar    1  UNL1        0.0000
     12 C          62.4108   81.3886   11.8512 C.ar    1  UNL1        0.0294
     13 C          61.3242   87.7725    9.8199 C.ar    1  UNL1        0.0528
     14 C          60.6153   87.0033    8.7447 C.ar    1  UNL1        0.0046
     15 C          59.8775   87.7337    7.6622 C.ar    1  UNL1        0.0002
     16 C          59.8484   89.2335    7.6547 C.ar    1  UNL1        0.0022
     17 C          60.5572   90.0027    8.7298 C.ar    1  UNL1        0.0002
     18 C          61.2951   89.2722    9.8124 C.ar    1  UNL1        0.0046
     19 C          59.1105   89.9640    6.5722 C.ar    1  UNL1        0.0275
     20 C          57.6176   89.8546    6.4767 C.ar    1  UNL1        0.0022
     21 C          56.8796   90.5850    5.3942 C.ar    1  UNL1        0.0001
     22 C          57.6347   91.4250    4.4071 C.ar    1  UNL1        0.0023
     23 C          59.1277   91.5344    4.5026 C.ar    1  UNL1        0.0296
     24 C          59.8656   90.8039    5.5851 C.ar    1  UNL1        0.1401
     25 F          61.3585   90.9133    5.6805 F       1  UNL1       -0.2042
     26 C          63.8760   84.6851   13.3409 C.3     1  UNL1        0.1595
     27 N          63.4584   85.0027   14.7462 N.ar    1  UNL1       -0.2277
     28 C          62.2607   84.4460   15.4572 C.ar    1  UNL1        0.1973
     29 N          62.2273   85.0321   16.8376 N.ar    1  UNL1       -0.2007
     30 C          63.4044   85.9510   16.9797 C.ar    1  UNL1        0.2210
     31 N          64.1653   85.9328   15.6871 N.ar    1  UNL1       -0.1451
@<TRIPOS>BOND
     1     6     7    1
     2     7     8   ar
     3     8     9   ar
     4     9    10   ar
     5    10     1    1
     6     1    26    1
     7    26    27    1
     8    27    28   ar
     9    28    29   ar
    10    29    30   ar
    11    30    31   ar
    12     1     2    1
    13     2     3    1
    14     3     4    1
    15     4    13    1
    16    13    14   ar
    17    14    15   ar
    18    15    16   ar
    19    16    19    1
    20    19    20   ar
    21    20    21   ar
    22    21    22   ar
    23    22    23   ar
    24    23    24   ar
    25    24    25    1
    26    16    17   ar
    27    17    18   ar
    28     4     5    2
    29    10    11   ar
    30    11    12   ar
    31    12     7   ar
    32     5     1    1
    33    31    27   ar
    34    18    13   ar
    35    24    19   ar
