@<TRIPOS>MOLECULE
*****
 28 31 0 0 0
SMALL
GASTEIGER

@<TRIPOS>ATOM
      1 C          63.3456   87.7152   12.8643 C.ar    1  UNL1        0.1320
      2 C          62.5047   88.0846   11.6783 C.ar    1  UNL1        0.0532
      3 C          61.8217   87.0137   10.8805 C.ar    1  UNL1        0.0857
      4 N          61.9795   85.5734   11.2686 N.ar    1  UNL1       -0.2264
      5 C          62.8204   85.2040   12.4545 C.ar    1  UNL1        0.1651
      6 N          63.5034   86.2749   13.2524 N.ar    1  UNL1       -0.2120
      7 C          60.9808   87.3831    9.6946 C.ar    1  UNL1        0.0178
      8 C          60.3701   86.3087    8.8443 C.ar    1  UNL1        0.0015
      9 C          59.5292   86.6781    7.6584 C.ar    1  UNL1        0.0000
     10 C          59.2990   88.1218    7.3226 C.ar    1  UNL1        0.0000
     11 C          59.9097   89.1962    8.1728 C.ar    1  UNL1        0.0000
     12 C          60.7506   88.8268    9.3588 C.ar    1  UNL1        0.0015
     13 C          62.9782   83.7637   12.8426 C.ar    1  UNL1        0.0550
     14 C          62.7204   82.6829   11.8349 C.ar    1  UNL1        0.0062
     15 C          62.8782   81.2425   12.2231 C.ar    1  UNL1        0.0208
     16 C          63.2938   80.8831   13.6188 C.ar    1  UNL1        0.0989
     17 N          63.5515   81.9639   14.6265 N.ar    1  UNL1       -0.2422
     18 C          63.3937   83.4042   14.2384 C.ar    1  UNL1        0.1019
     19 N          64.0287   88.7861   13.6622 N.pl3   1  UNL1       -0.3118
     20 H          64.8157   88.5649   14.2107 H       1  UNL1        0.1486
     21 C          63.5127   90.1940   13.6243 C.3     1  UNL1        0.1550
     22 C          66.5707   94.4318   10.6765 C.3     1  UNL1        0.0343
     23 C          65.8062   93.3724   11.4135 C.ar    1  UNL1        0.0165
     24 C          64.8640   92.4730   10.6696 C.ar    1  UNL1        0.0975
     25 N          64.0995   91.4135   11.4066 N.ar    1  UNL1       -0.2277
     26 C          64.2772   91.2535   12.8873 C.ar    1  UNL1        0.1589
     27 N          65.2194   92.1528   13.6312 N.ar    1  UNL1       -0.2277
     28 C          65.9839   93.2123   12.8943 C.ar    1  UNL1        0.0975
@<TRIPOS>BOND
     1    22    23    1
     2    23    24   ar
     3    24    25   ar
     4    25    26   ar
     5    26    21    1
     6    21    19    1
     7    19     1    1
     8     1     2   ar
     9     2     3   ar
    10     3     7    1
    11     7     8   ar
    12     8     9   ar
    13     9    10   ar
    14    10    11   ar
    15    11    12   ar
    16     3     4   ar
    17     4     5   ar
    18     5    13    1
    19    13    14   ar
    20    14    15   ar
    21    15    16   ar
    22    16    17   ar
    23    17    18   ar
    24     5     6   ar
    25    26    27   ar
    26    27    28   ar
    27    28    23   ar
    28     6     1   ar
    29    12     7   ar
    30    18    13   ar
    31    19    20    1
@<TRIPOS>MOLECULE
*****
 28 31 0 0 0
SMALL
GASTEIGER

@<TRIPOS>ATOM
      1 C          63.3552   87.6395   13.0064 C.ar    1  UNL1        0.1320
      2 C          62.5334   88.0509   11.8209 C.ar    1  UNL1        0.0532
      3 C          61.8583   87.0095   10.9785 C.ar    1  UNL1        0.0857
      4 N          62.0050   85.5566   11.3216 N.ar    1  UNL1       -0.2264
      5 C          62.8268   85.1452   12.5071 C.ar    1  UNL1        0.1651
      6 N          63.5019   86.1867   13.3495 N.ar    1  UNL1       -0.2120
      7 C          61.0365   87.4208    9.7930 C.ar    1  UNL1        0.0178
      8 C          60.8389   88.8757    9.4858 C.ar    1  UNL1        0.0015
      9 C          60.0171   89.2871    8.3004 C.ar    1  UNL1        0.0000
     10 C          59.3928   88.2436    7.4220 C.ar    1  UNL1        0.0000
     11 C          59.5904   86.7888    7.7292 C.ar    1  UNL1        0.0000
     12 C          60.4122   86.3774    8.9147 C.ar    1  UNL1        0.0015
     13 C          62.9736   83.6924   12.8501 C.ar    1  UNL1        0.0550
     14 C          62.7339   82.6464   11.8021 C.ar    1  UNL1        0.0062
     15 C          62.8806   81.1935   12.1453 C.ar    1  UNL1        0.0208
     16 C          63.2670   80.7867   13.5363 C.ar    1  UNL1        0.0989
     17 N          63.5067   81.8328   14.5844 N.ar    1  UNL1       -0.2422
     18 C          63.3600   83.2856   14.2413 C.ar    1  UNL1        0.1019
     19 N          64.0303   88.6810   13.8488 N.pl3   1  UNL1       -0.3118
     20 H          64.4299   88.4316   14.7133 H       1  UNL1        0.1486
     21 C          64.0965   90.1023   13.3740 C.3     1  UNL1        0.1550
     22 C          68.1294   93.8679   15.7312 C.3     1  UNL1        0.0343
     23 C          67.1211   92.9265   15.1419 C.ar    1  UNL1        0.0165
     24 C          67.3025   92.4118   13.7447 C.ar    1  UNL1        0.0975
     25 N          66.2943   91.4704   13.1554 N.ar    1  UNL1       -0.2277
     26 C          65.1047   91.0437   13.9633 C.ar    1  UNL1        0.1589
     27 N          64.9234   91.5583   15.3605 N.ar    1  UNL1       -0.2277
     28 C          65.9316   92.4997   15.9498 C.ar    1  UNL1        0.0975
@<TRIPOS>BOND
     1    22    23    1
     2    23    24   ar
     3    24    25   ar
     4    25    26   ar
     5    26    21    1
     6    21    19    1
     7    19     1    1
     8     1     2   ar
     9     2     3   ar
    10     3     7    1
    11     7     8   ar
    12     8     9   ar
    13     9    10   ar
    14    10    11   ar
    15    11    12   ar
    16     3     4   ar
    17     4     5   ar
    18     5    13    1
    19    13    14   ar
    20    14    15   ar
    21    15    16   ar
    22    16    17   ar
    23    17    18   ar
    24     5     6   ar
    25    26    27   ar
    26    27    28   ar
    27    28    23   ar
    28     6     1   ar
    29    12     7   ar
    30    18    13   ar
    31    19    20    1
@<TRIPOS>MOLECULE
*****
 28 31 0 0 0
SMALL
GASTEIGER

@<TRIPOS>ATOM
      1 C          63.4804   86.8931   13.1698 C.ar    1  UNL1        0.1320
      2 C          63.4437   85.4066   13.3678 C.ar    1  UNL1        0.0532
      3 C          62.6402   84.5459   12.4386 C.ar    1  UNL1        0.0857
      4 N          61.8732   85.1716   11.3114 N.ar    1  UNL1       -0.2264
      5 C          61.9099   86.6580   11.1135 C.ar    1  UNL1        0.1651
      6 N          62.7135   87.5187   12.0427 N.ar    1  UNL1       -0.2120
      7 C          62.6035   83.0595   12.6365 C.ar    1  UNL1        0.0178
      8 C          63.0143   82.1440   11.5214 C.ar    1  UNL1        0.0015
      9 C          62.9776   80.6576   11.7193 C.ar    1  UNL1        0.0000
     10 C          62.5302   80.0866   13.0322 C.ar    1  UNL1        0.0000
     11 C          62.1195   81.0019   14.1473 C.ar    1  UNL1        0.0000
     12 C          62.1561   82.4884   13.9494 C.ar    1  UNL1        0.0015
     13 C          61.1430   87.2836    9.9865 C.ar    1  UNL1        0.0550
     14 C          60.4694   86.4159    8.9650 C.ar    1  UNL1        0.0062
     15 C          59.7025   87.0417    7.8378 C.ar    1  UNL1        0.0208
     16 C          59.6091   88.5350    7.7322 C.ar    1  UNL1        0.0989
     17 N          60.2827   89.4027    8.7537 N.ar    1  UNL1       -0.2422
     18 C          61.0496   88.7770    9.8808 C.ar    1  UNL1        0.1019
     19 N          64.2839   87.7539   14.0990 N.pl3   1  UNL1       -0.3118
     20 H          65.1241   87.4131   14.4827 H       1  UNL1        0.1486
     21 C          63.8074   89.1338   14.4435 C.3     1  UNL1        0.1550
     22 C          66.2448   93.9090   11.7498 C.3     1  UNL1        0.0343
     23 C          65.6354   92.7152   12.4232 C.ar    1  UNL1        0.0165
     24 C          66.1501   92.2629   13.7575 C.ar    1  UNL1        0.0975
     25 N          65.5408   91.0690   14.4310 N.ar    1  UNL1       -0.2277
     26 C          64.4168   90.3276   13.7701 C.ar    1  UNL1        0.1589
     27 N          63.9021   90.7800   12.4358 N.ar    1  UNL1       -0.2277
     28 C          64.5114   91.9738   11.7623 C.ar    1  UNL1        0.0975
@<TRIPOS>BOND
     1    22    23    1
     2    23    24   ar
     3    24    25   ar
     4    25    26   ar
     5    26    21    1
     6    21    19    1
     7    19     1    1
     8     1     2   ar
     9     2     3   ar
    10     3     7    1
    11     7     8   ar
    12     8     9   ar
    13     9    10   ar
    14    10    11   ar
    15    11    12   ar
    16     3     4   ar
    17     4     5   ar
    18     5    13    1
    19    13    14   ar
    20    14    15   ar
    21    15    16   ar
    22    16    17   ar
    23    17    18   ar
    24     5     6   ar
    25    26    27   ar
    26    27    28   ar
    27    28    23   ar
    28     6     1   ar
    29    12     7   ar
    30    18    13   ar
    31    19    20    1
@<TRIPOS>MOLECULE
*****
 28 31 0 0 0
SMALL
GASTEIGER

@<TRIPOS>ATOM
      1 C          63.5067   86.9153   13.2042 C.ar    1  UNL1        0.1320
      2 C          63.4720   85.4276   13.3931 C.ar    1  UNL1        0.0532
      3 C          62.6670   84.5718   12.4605 C.ar    1  UNL1        0.0857
      4 N          61.8968   85.2037   11.3391 N.ar    1  UNL1       -0.2264
      5 C          61.9316   86.6913   11.1502 C.ar    1  UNL1        0.1651
      6 N          62.7365   87.5471   12.0828 N.ar    1  UNL1       -0.2120
      7 C          62.6323   83.0841   12.6493 C.ar    1  UNL1        0.0178
      8 C          62.2217   82.5052   13.9708 C.ar    1  UNL1        0.0015
      9 C          62.1870   81.0176   14.1597 C.ar    1  UNL1        0.0000
     10 C          62.5627   80.1088   13.0270 C.ar    1  UNL1        0.0000
     11 C          62.9733   80.6877   11.7055 C.ar    1  UNL1        0.0000
     12 C          63.0081   82.1754   11.5167 C.ar    1  UNL1        0.0015
     13 C          61.1614   87.3232   10.0289 C.ar    1  UNL1        0.0550
     14 C          60.4947   86.4613    8.9979 C.ar    1  UNL1        0.0062
     15 C          59.7245   87.0933    7.8765 C.ar    1  UNL1        0.0208
     16 C          59.6210   88.5869    7.7861 C.ar    1  UNL1        0.0989
     17 N          60.2877   89.4487    8.8170 N.ar    1  UNL1       -0.2422
     18 C          61.0578   88.8169    9.9384 C.ar    1  UNL1        0.1019
     19 N          64.3116   87.7711   14.1368 N.pl3   1  UNL1       -0.3118
     20 H          65.1411   87.4203   14.5345 H       1  UNL1        0.1486
     21 C          63.8528   89.1613   14.4634 C.3     1  UNL1        0.1550
     22 C          66.2605   93.8619   11.6160 C.3     1  UNL1        0.0343
     23 C          65.6586   92.6867   12.3279 C.ar    1  UNL1        0.0165
     24 C          64.4983   91.9556   11.7203 C.ar    1  UNL1        0.0975
     25 N          63.8964   90.7805   12.4321 N.ar    1  UNL1       -0.2277
     26 C          64.4547   90.3364   13.7516 C.ar    1  UNL1        0.1589
     27 N          65.6150   91.0675   14.3592 N.ar    1  UNL1       -0.2277
     28 C          66.2169   92.2426   13.6473 C.ar    1  UNL1        0.0975
@<TRIPOS>BOND
     1    22    23    1
     2    23    24   ar
     3    24    25   ar
     4    25    26   ar
     5    26    21    1
     6    21    19    1
     7    19     1    1
     8     1     2   ar
     9     2     3   ar
    10     3     7    1
    11     7     8   ar
    12     8     9   ar
    13     9    10   ar
    14    10    11   ar
    15    11    12   ar
    16     3     4   ar
    17     4     5   ar
    18     5    13    1
    19    13    14   ar
    20    14    15   ar
    21    15    16   ar
    22    16    17   ar
    23    17    18   ar
    24     5     6   ar
    25    26    27   ar
    26    27    28   ar
    27    28    23   ar
    28     6     1   ar
    29    12     7   ar
    30    18    13   ar
    31    19    20    1
@<TRIPOS>MOLECULE
*****
 28 31 0 0 0
SMALL
GASTEIGER

@<TRIPOS>ATOM
      1 C          63.8217   88.6877   13.6772 C.ar    1  UNL1        0.1320
      2 C          64.5118   90.0094   13.5132 C.ar    1  UNL1        0.0532
      3 C          64.2937   90.8202   12.2701 C.ar    1  UNL1        0.0857
      4 N          63.3855   90.3092   11.1911 N.ar    1  UNL1       -0.2264
      5 C          62.6955   88.9876   11.3552 C.ar    1  UNL1        0.1651
      6 N          62.9135   88.1768   12.5982 N.ar    1  UNL1       -0.2120
      7 C          64.9838   92.1419   12.1061 C.ar    1  UNL1        0.0178
      8 C          64.9319   92.8566   10.7883 C.ar    1  UNL1        0.0015
      9 C          65.6220   94.1783   10.6242 C.ar    1  UNL1        0.0000
     10 C          66.3639   94.7853   11.7779 C.ar    1  UNL1        0.0000
     11 C          66.4158   94.0706   13.0957 C.ar    1  UNL1        0.0000
     12 C          65.7258   92.7489   13.2598 C.ar    1  UNL1        0.0015
     13 C          61.7873   88.4766   10.2762 C.ar    1  UNL1        0.0550
     14 C          61.8517   87.0366    9.8612 C.ar    1  UNL1        0.0062
     15 C          60.9435   86.5258    8.7822 C.ar    1  UNL1        0.0208
     16 C          59.9710   87.4549    8.1182 C.ar    1  UNL1        0.0989
     17 N          59.9066   88.8949    8.5332 N.ar    1  UNL1       -0.2422
     18 C          60.8147   89.4058    9.6122 C.ar    1  UNL1        0.1019
     19 N          64.0398   87.8769   14.9202 N.pl3   1  UNL1       -0.3118
     20 H          63.6868   88.1939   15.7829 H       1  UNL1        0.1486
     21 C          64.7956   86.5833   14.8489 C.3     1  UNL1        0.1550
     22 C          61.8332   81.4119   14.1554 C.3     1  UNL1        0.0343
     23 C          62.5738   82.7048   14.3287 C.ar    1  UNL1        0.0165
     24 C          63.8518   82.9432   13.5805 C.ar    1  UNL1        0.0975
     25 N          64.5924   84.2361   13.7538 N.ar    1  UNL1       -0.2277
     26 C          64.0550   85.2905   14.6755 C.ar    1  UNL1        0.1589
     27 N          62.7771   85.0520   15.4238 N.ar    1  UNL1       -0.2277
     28 C          62.0365   83.7592   15.2504 C.ar    1  UNL1        0.0975
@<TRIPOS>BOND
     1    22    23    1
     2    23    24   ar
     3    24    25   ar
     4    25    26   ar
     5    26    21    1
     6    21    19    1
     7    19     1    1
     8     1     2   ar
     9     2     3   ar
    10     3     7    1
    11     7     8   ar
    12     8     9   ar
    13     9    10   ar
    14    10    11   ar
    15    11    12   ar
    16     3     4   ar
    17     4     5   ar
    18     5    13    1
    19    13    14   ar
    20    14    15   ar
    21    15    16   ar
    22    16    17   ar
    23    17    18   ar
    24     5     6   ar
    25    26    27   ar
    26    27    28   ar
    27    28    23   ar
    28     6     1   ar
    29    12     7   ar
    30    18    13   ar
    31    19    20    1
@<TRIPOS>MOLECULE
*****
 28 31 0 0 0
SMALL
GASTEIGER

@<TRIPOS>ATOM
      1 C          63.8769   88.7621   13.6891 C.ar    1  UNL1        0.1320
      2 C          62.9689   88.2456   12.6125 C.ar    1  UNL1        0.0532
      3 C          62.7405   89.0563   11.3712 C.ar    1  UNL1        0.0857
      4 N          63.4201   90.3834   11.2066 N.ar    1  UNL1       -0.2264
      5 C          64.3280   90.8998   12.2831 C.ar    1  UNL1        0.1651
      6 N          64.5564   90.0891   13.5244 N.ar    1  UNL1       -0.2120
      7 C          61.8326   88.5399   10.2947 C.ar    1  UNL1        0.0178
      8 C          61.8308   87.0796    9.9516 C.ar    1  UNL1        0.0015
      9 C          60.9229   86.5632    8.8751 C.ar    1  UNL1        0.0000
     10 C          60.0168   87.5070    8.1415 C.ar    1  UNL1        0.0000
     11 C          60.0185   88.9672    8.4845 C.ar    1  UNL1        0.0000
     12 C          60.9264   89.4837    9.5611 C.ar    1  UNL1        0.0015
     13 C          65.0075   92.2268   12.1185 C.ar    1  UNL1        0.0550
     14 C          64.9583   92.9358   10.7975 C.ar    1  UNL1        0.0062
     15 C          65.6379   94.2629   10.6328 C.ar    1  UNL1        0.0208
     16 C          66.3665   94.8810   11.7891 C.ar    1  UNL1        0.0989
     17 N          66.4156   94.1720   13.1101 N.ar    1  UNL1       -0.2422
     18 C          65.7361   92.8450   13.2748 C.ar    1  UNL1        0.1019
     19 N          64.1053   87.9514   14.9303 N.pl3   1  UNL1       -0.3118
     20 H          63.7691   88.2738   15.7976 H       1  UNL1        0.1486
     21 C          64.8459   86.6495   14.8501 C.3     1  UNL1        0.1550
     22 C          61.8174   81.5099   14.2073 C.3     1  UNL1        0.0343
     23 C          62.5746   82.7948   14.3680 C.ar    1  UNL1        0.0165
     24 C          63.8570   83.0082   13.6199 C.ar    1  UNL1        0.0975
     25 N          64.6141   84.2931   13.7806 N.ar    1  UNL1       -0.2277
     26 C          64.0888   85.3646   14.6894 C.ar    1  UNL1        0.1589
     27 N          62.8063   85.1511   15.4375 N.ar    1  UNL1       -0.2277
     28 C          62.0492   83.8662   15.2768 C.ar    1  UNL1        0.0975
@<TRIPOS>BOND
     1    22    23    1
     2    23    24   ar
     3    24    25   ar
     4    25    26   ar
     5    26    21    1
     6    21    19    1
     7    19     1    1
     8     1     2   ar
     9     2     3   ar
    10     3     7    1
    11     7     8   ar
    12     8     9   ar
    13     9    10   ar
    14    10    11   ar
    15    11    12   ar
    16     3     4   ar
    17     4     5   ar
    18     5    13    1
    19    13    14   ar
    20    14    15   ar
    21    15    16   ar
    22    16    17   ar
    23    17    18   ar
    24     5     6   ar
    25    26    27   ar
    26    27    28   ar
    27    28    23   ar
    28     6     1   ar
    29    12     7   ar
    30    18    13   ar
    31    19    20    1
@<TRIPOS>MOLECULE
*****
 28 31 0 0 0
SMALL
GASTEIGER

@<TRIPOS>ATOM
      1 C          64.3643   91.1203   13.6452 C.ar    1  UNL1        0.1320
      2 C          65.2592   92.0800   12.9184 C.ar    1  UNL1        0.0532
      3 C          65.1204   92.2585   11.4355 C.ar    1  UNL1        0.0857
      4 N          64.0868   91.4773   10.6795 N.ar    1  UNL1       -0.2264
      5 C          63.1920   90.5177   11.4064 C.ar    1  UNL1        0.1651
      6 N          63.3308   90.3392   12.8892 N.ar    1  UNL1       -0.2120
      7 C          66.0152   93.2181   10.7086 C.ar    1  UNL1        0.0178
      8 C          67.2162   92.7094    9.9676 C.ar    1  UNL1        0.0015
      9 C          68.1110   93.6691    9.2408 C.ar    1  UNL1        0.0000
     10 C          67.8049   95.1374    9.2548 C.ar    1  UNL1        0.0000
     11 C          66.6040   95.6462    9.9957 C.ar    1  UNL1        0.0000
     12 C          65.7091   94.6865   10.7227 C.ar    1  UNL1        0.0015
     13 C          62.1584   89.7366   10.6504 C.ar    1  UNL1        0.0550
     14 C          62.4545   88.3349   10.2058 C.ar    1  UNL1        0.0062
     15 C          61.4208   87.5538    9.4498 C.ar    1  UNL1        0.0208
     16 C          60.0912   88.1744    9.1384 C.ar    1  UNL1        0.0989
     17 N          59.7952   89.5760    9.5830 N.ar    1  UNL1       -0.2422
     18 C          60.8287   90.3571   10.3390 C.ar    1  UNL1        0.1019
     19 N          64.5031   90.9418   15.1281 N.pl3   1  UNL1       -0.3118
     20 H          65.2452   91.3748   15.6087 H       1  UNL1        0.1486
     21 C          63.5112   90.1035   15.8787 C.3     1  UNL1        0.1550
     22 C          63.8693   84.1181   15.6629 C.3     1  UNL1        0.0343
     23 C          63.7798   85.6145   15.7169 C.ar    1  UNL1        0.0165
     24 C          64.3983   86.4425   14.6298 C.ar    1  UNL1        0.0975
     25 N          64.3088   87.9388   14.6837 N.ar    1  UNL1       -0.2277
     26 C          63.6007   88.6072   15.8247 C.ar    1  UNL1        0.1589
     27 N          62.9822   87.7792   16.9118 N.ar    1  UNL1       -0.2277
     28 C          63.0717   86.2828   16.8579 C.ar    1  UNL1        0.0975
@<TRIPOS>BOND
     1    22    23    1
     2    23    24   ar
     3    24    25   ar
     4    25    26   ar
     5    26    21    1
     6    21    19    1
     7    19     1    1
     8     1     2   ar
     9     2     3   ar
    10     3     7    1
    11     7     8   ar
    12     8     9   ar
    13     9    10   ar
    14    10    11   ar
    15    11    12   ar
    16     3     4   ar
    17     4     5   ar
    18     5    13    1
    19    13    14   ar
    20    14    15   ar
    21    15    16   ar
    22    16    17   ar
    23    17    18   ar
    24     5     6   ar
    25    26    27   ar
    26    27    28   ar
    27    28    23   ar
    28     6     1   ar
    29    12     7   ar
    30    18    13   ar
    31    19    20    1
@<TRIPOS>MOLECULE
*****
 28 31 0 0 0
SMALL
GASTEIGER

@<TRIPOS>ATOM
      1 C          64.2432   91.0337   13.7861 C.ar    1  UNL1        0.1320
      2 C          63.2527   90.1960   13.0329 C.ar    1  UNL1        0.0532
      3 C          63.1423   90.3237   11.5424 C.ar    1  UNL1        0.0857
      4 N          64.0225   91.2891   10.8052 N.ar    1  UNL1       -0.2264
      5 C          65.0129   92.1267   11.5584 C.ar    1  UNL1        0.1651
      6 N          65.1233   91.9990   13.0489 N.ar    1  UNL1       -0.2120
      7 C          62.1519   89.4861   10.7891 C.ar    1  UNL1        0.0178
      8 C          61.1554   90.1402    9.8785 C.ar    1  UNL1        0.0015
      9 C          60.1649   89.3026    9.1253 C.ar    1  UNL1        0.0000
     10 C          60.1710   87.8109    9.2826 C.ar    1  UNL1        0.0000
     11 C          61.1675   87.1568   10.1931 C.ar    1  UNL1        0.0000
     12 C          62.1580   87.9944   10.9464 C.ar    1  UNL1        0.0015
     13 C          65.8930   93.0921   10.8212 C.ar    1  UNL1        0.0550
     14 C          67.1137   92.5968   10.1039 C.ar    1  UNL1        0.0062
     15 C          67.9937   93.5623    9.3666 C.ar    1  UNL1        0.0208
     16 C          67.6531   95.0229    9.3467 C.ar    1  UNL1        0.0989
     17 N          66.4324   95.5182   10.0641 N.ar    1  UNL1       -0.2422
     18 C          65.5523   94.5528   10.8013 C.ar    1  UNL1        0.1019
     19 N          64.3536   90.9059   15.2766 N.pl3   1  UNL1       -0.3118
     20 H          65.0604   91.3904   15.7612 H       1  UNL1        0.1486
     21 C          63.3869   90.0400   16.0287 C.3     1  UNL1        0.1550
     22 C          63.8686   84.0657   15.7526 C.3     1  UNL1        0.0343
     23 C          63.7482   85.5593   15.8216 C.ar    1  UNL1        0.0165
     24 C          64.3873   86.4128   14.7667 C.ar    1  UNL1        0.0975
     25 N          64.2668   87.9064   14.8357 N.ar    1  UNL1       -0.2277
     26 C          63.5074   88.5464   15.9597 C.ar    1  UNL1        0.1589
     27 N          62.8683   87.6929   17.0147 N.ar    1  UNL1       -0.2277
     28 C          62.9887   86.1993   16.9457 C.ar    1  UNL1        0.0975
@<TRIPOS>BOND
     1    22    23    1
     2    23    24   ar
     3    24    25   ar
     4    25    26   ar
     5    26    21    1
     6    21    19    1
     7    19     1    1
     8     1     2   ar
     9     2     3   ar
    10     3     7    1
    11     7     8   ar
    12     8     9   ar
    13     9    10   ar
    14    10    11   ar
    15    11    12   ar
    16     3     4   ar
    17     4     5   ar
    18     5    13    1
    19    13    14   ar
    20    14    15   ar
    21    15    16   ar
    22    16    17   ar
    23    17    18   ar
    24     5     6   ar
    25    26    27   ar
    26    27    28   ar
    27    28    23   ar
    28     6     1   ar
    29    12     7   ar
    30    18    13   ar
    31    19    20    1
@<TRIPOS>MOLECULE
*****
 28 31 0 0 0
SMALL
GASTEIGER

@<TRIPOS>ATOM
      1 C          62.9468   89.7544   12.3034 C.ar    1  UNL1        0.1320
      2 C          62.0880   89.5352   11.0931 C.ar    1  UNL1        0.0532
      3 C          61.7376   88.1410   10.6648 C.ar    1  UNL1        0.0857
      4 N          62.2459   86.9661   11.4466 N.ar    1  UNL1       -0.2264
      5 C          63.1046   87.1853   12.6567 C.ar    1  UNL1        0.1651
      6 N          63.4551   88.5795   13.0851 N.ar    1  UNL1       -0.2120
      7 C          60.8789   87.9218    9.4546 C.ar    1  UNL1        0.0178
      8 C          60.2971   89.0963    8.7250 C.ar    1  UNL1        0.0015
      9 C          59.4384   88.8770    7.5148 C.ar    1  UNL1        0.0000
     10 C          59.1614   87.4834    7.0342 C.ar    1  UNL1        0.0000
     11 C          59.7430   86.3089    7.7638 C.ar    1  UNL1        0.0000
     12 C          60.6018   86.5281    8.9740 C.ar    1  UNL1        0.0015
     13 C          63.6129   86.0104   13.4385 C.ar    1  UNL1        0.0550
     14 C          64.2732   86.2234   14.7684 C.ar    1  UNL1        0.0062
     15 C          64.7815   85.0484   15.5501 C.ar    1  UNL1        0.0208
     16 C          64.6294   83.6605   15.0020 C.ar    1  UNL1        0.0989
     17 N          63.9691   83.4475   13.6721 N.ar    1  UNL1       -0.2422
     18 C          63.4608   84.6224   12.8904 C.ar    1  UNL1        0.1019
     19 N          63.2972   91.1486   12.7318 N.pl3   1  UNL1       -0.3118
     20 H          62.6753   91.6606   13.2977 H       1  UNL1        0.1486
     21 C          64.5952   91.7626   12.2979 C.3     1  UNL1        0.1550
     22 C          68.9688   92.6761   16.3025 C.3     1  UNL1        0.0343
     23 C          67.8754   92.4477   15.3014 C.ar    1  UNL1        0.0165
     24 C          66.4394   92.5523   15.7221 C.ar    1  UNL1        0.0975
     25 N          65.3460   92.3239   14.7209 N.ar    1  UNL1       -0.2277
     26 C          65.6886   91.9909   13.2990 C.ar    1  UNL1        0.1589
     27 N          67.1245   91.8864   12.8783 N.ar    1  UNL1       -0.2277
     28 C          68.2179   92.1148   13.8795 C.ar    1  UNL1        0.0975
@<TRIPOS>BOND
     1    22    23    1
     2    23    24   ar
     3    24    25   ar
     4    25    26   ar
     5    26    21    1
     6    21    19    1
     7    19     1    1
     8     1     2   ar
     9     2     3   ar
    10     3     7    1
    11     7     8   ar
    12     8     9   ar
    13     9    10   ar
    14    10    11   ar
    15    11    12   ar
    16     3     4   ar
    17     4     5   ar
    18     5    13    1
    19    13    14   ar
    20    14    15   ar
    21    15    16   ar
    22    16    17   ar
    23    17    18   ar
    24     5     6   ar
    25    26    27   ar
    26    27    28   ar
    27    28    23   ar
    28     6     1   ar
    29    12     7   ar
    30    18    13   ar
    31    19    20    1
