@<TRIPOS>MOLECULE
*****
 30 33 0 0 0
SMALL
GASTEIGER

@<TRIPOS>ATOM
      1 C          61.4652   89.0798   11.0320 C.3     1  UNL1        0.0407
      2 C          66.1948   93.4479   11.4256 C.ar    1  UNL1        0.1721
      3 C          65.2507   92.7798   10.4705 C.ar    1  UNL1        0.0359
      4 C          64.2818   91.7498   10.9709 C.ar    1  UNL1       -0.0158
      5 C          64.2569   91.3880   12.4264 C.ar    1  UNL1        0.0340
      6 C          65.2010   92.0562   13.3814 C.ar    1  UNL1        0.0426
      7 C          66.1699   93.0861   12.8811 C.ar    1  UNL1        0.1725
      8 C          63.1988   90.3438   12.6264 C.2     1  UNL1        0.1728
      9 O          62.8339   89.6968   13.9295 O.2     1  UNL1       -0.2913
     10 C          62.5697   90.0603   11.2946 C.3     1  UNL1        0.0689
     11 C          63.2390   90.9292   10.2714 C.3     1  UNL1        0.0343
     12 C          67.6001   94.4624    9.4902 C.3     1  UNL1        0.2526
     13 O          67.1637   94.4779   10.9252 O.3     1  UNL1       -0.4684
     14 O          67.1141   93.7543   13.8362 O.3     1  UNL1       -0.4684
     15 C          67.2791   93.2168   15.2268 C.3     1  UNL1        0.2526
     16 C          61.7335   87.8475   10.2201 C.3     1  UNL1        0.1369
     17 F          61.1086   88.7193    9.1715 F       1  UNL1       -0.2399
     18 C          62.2651   87.4037   11.5507 C.3     1  UNL1        0.0500
     19 C          62.8481   86.0303   11.7052 C.3     1  UNL1        0.0751
     20 N          62.8994   85.1007   10.5291 N.3     1  UNL1       -0.2687
     21 C          62.3678   85.5444    9.1986 C.3     1  UNL1        0.0751
     22 C          61.7848   86.9178    9.0440 C.3     1  UNL1        0.0500
     23 C          63.4824   83.7273   10.6836 C.3     1  UNL1        0.1014
     24 C          63.0378   82.8465   11.8135 C.ar    1  UNL1        0.0213
     25 C          62.7478   83.4421   13.1593 C.ar    1  UNL1       -0.0007
     26 C          62.3032   82.5614   14.2892 C.ar    1  UNL1       -0.0001
     27 C          62.1486   81.0851   14.0733 C.ar    1  UNL1        0.0023
     28 C          62.4386   80.4895   12.7275 C.ar    1  UNL1        0.0294
     29 C          62.8832   81.3702   11.5976 C.ar    1  UNL1        0.1374
     30 F          63.1732   80.7747   10.2518 F       1  UNL1       -0.2045
@<TRIPOS>BOND
     1    12    13    1
     2    13     2    1
     3     2     3   ar
     4     3     4   ar
     5     4     5   ar
     6     5     6   ar
     7     6     7   ar
     8     7    14    1
     9    14    15    1
    10     5     8    1
    11     8     9    2
    12     8    10    1
    13    10     1    1
    14     1    16    1
    15    16    17    1
    16    16    18    1
    17    18    19    1
    18    19    20    1
    19    20    23    1
    20    23    24    1
    21    24    25   ar
    22    25    26   ar
    23    26    27   ar
    24    27    28   ar
    25    28    29   ar
    26    29    30    1
    27    20    21    1
    28    21    22    1
    29    10    11    1
    30     7     2   ar
    31    22    16    1
    32    11     4    1
    33    29    24   ar
@<TRIPOS>MOLECULE
*****
 30 33 0 0 0
SMALL
GASTEIGER

@<TRIPOS>ATOM
      1 C          61.6428   88.7222   11.2789 C.3     1  UNL1        0.0407
      2 C          66.2100   92.6375   13.6062 C.ar    1  UNL1        0.1721
      3 C          65.3739   91.4360   13.9339 C.ar    1  UNL1        0.0359
      4 C          64.3882   90.9123   12.9320 C.ar    1  UNL1       -0.0158
      5 C          64.2384   91.5900   11.6022 C.ar    1  UNL1        0.0340
      6 C          65.0744   92.7915   11.2745 C.ar    1  UNL1        0.0426
      7 C          66.0602   93.3152   12.2764 C.ar    1  UNL1        0.1725
      8 C          63.1918   90.8521   10.8212 C.2     1  UNL1        0.1728
      9 O          62.7244   91.1889    9.4362 O.2     1  UNL1       -0.2913
     10 C          62.6947   89.7183   11.6682 C.3     1  UNL1        0.0689
     11 C          63.4341   89.7555   12.9727 C.3     1  UNL1        0.0343
     12 C          67.0441   92.8168   16.0601 C.3     1  UNL1        0.2526
     13 O          67.1957   93.1612   14.6081 O.3     1  UNL1       -0.4684
     14 O          66.8963   94.5168   11.9486 O.3     1  UNL1       -0.4684
     15 C          66.4999   95.4208   10.8192 C.3     1  UNL1        0.2526
     16 C          61.9913   87.5789   10.3727 C.3     1  UNL1        0.1369
     17 F          61.5183   88.5792    9.3599 F       1  UNL1       -0.2399
     18 C          62.3433   86.9758   11.7002 C.3     1  UNL1        0.0500
     19 C          62.8795   85.5766   11.7698 C.3     1  UNL1        0.0751
     20 N          63.0637   84.7806   10.5118 N.3     1  UNL1       -0.2687
     21 C          62.7118   85.3838    9.1843 C.3     1  UNL1        0.0751
     22 C          62.1756   86.7829    9.1147 C.3     1  UNL1        0.0500
     23 C          63.6000   83.3815   10.5814 C.3     1  UNL1        0.1014
     24 C          63.1673   82.4667   11.6887 C.ar    1  UNL1        0.0213
     25 C          62.9809   83.0048   13.0764 C.ar    1  UNL1       -0.0007
     26 C          62.5482   82.0900   14.1837 C.ar    1  UNL1       -0.0001
     27 C          62.3021   80.6372   13.9032 C.ar    1  UNL1        0.0023
     28 C          62.4885   80.0991   12.5156 C.ar    1  UNL1        0.0294
     29 C          62.9212   81.0139   11.4083 C.ar    1  UNL1        0.1374
     30 F          63.1076   80.4758   10.0206 F       1  UNL1       -0.2045
@<TRIPOS>BOND
     1    12    13    1
     2    13     2    1
     3     2     3   ar
     4     3     4   ar
     5     4     5   ar
     6     5     6   ar
     7     6     7   ar
     8     7    14    1
     9    14    15    1
    10     5     8    1
    11     8     9    2
    12     8    10    1
    13    10     1    1
    14     1    16    1
    15    16    17    1
    16    16    18    1
    17    18    19    1
    18    19    20    1
    19    20    23    1
    20    23    24    1
    21    24    25   ar
    22    25    26   ar
    23    26    27   ar
    24    27    28   ar
    25    28    29   ar
    26    29    30    1
    27    20    21    1
    28    21    22    1
    29    10    11    1
    30     7     2   ar
    31    22    16    1
    32    11     4    1
    33    29    24   ar
@<TRIPOS>MOLECULE
*****
 30 33 0 0 0
SMALL
GASTEIGER

@<TRIPOS>ATOM
      1 C          64.2644   88.7441   14.9544 C.3     1  UNL1        0.0407
      2 C          62.9491   82.8356   12.7263 C.ar    1  UNL1        0.1721
      3 C          63.3826   84.2097   12.3093 C.ar    1  UNL1        0.0359
      4 C          63.5387   85.2911   13.3370 C.ar    1  UNL1       -0.0158
      5 C          63.2614   84.9984   14.7817 C.ar    1  UNL1        0.0340
      6 C          62.8278   83.6244   15.1988 C.ar    1  UNL1        0.0426
      7 C          62.6717   82.5430   14.1711 C.ar    1  UNL1        0.1725
      8 C          63.4994   86.2563   15.5635 C.2     1  UNL1        0.1728
      9 O          63.3408   86.4160   17.0465 O.2     1  UNL1       -0.2913
     10 C          63.9240   87.3264   14.6018 C.3     1  UNL1        0.0689
     11 C          63.9483   86.7299   13.2258 C.3     1  UNL1        0.0343
     12 C          63.6797   81.7354   10.4890 C.3     1  UNL1        0.2526
     13 O          62.7929   81.7542   11.6986 O.3     1  UNL1       -0.4684
     14 O          62.2381   81.1689   14.5882 O.3     1  UNL1       -0.4684
     15 C          60.8845   80.6573   14.1932 C.3     1  UNL1        0.2526
     16 C          64.0892   89.8326   13.9374 C.3     1  UNL1        0.1369
     17 F          62.8835   88.9942   13.6319 F       1  UNL1       -0.2399
     18 C          65.3557   90.2930   14.5961 C.3     1  UNL1        0.0500
     19 C          66.0283   91.5507   14.1318 C.3     1  UNL1        0.0751
     20 N          65.4344   92.3481   13.0086 N.3     1  UNL1       -0.2687
     21 C          64.1678   91.8878   12.3499 C.3     1  UNL1        0.0751
     22 C          63.4952   90.6301   12.8143 C.3     1  UNL1        0.0500
     23 C          66.1070   93.6059   12.5443 C.3     1  UNL1        0.1014
     24 C          66.8077   93.6360   11.2183 C.ar    1  UNL1        0.0213
     25 C          67.5030   92.4082   10.7094 C.ar    1  UNL1       -0.0007
     26 C          68.2037   92.4384    9.3834 C.ar    1  UNL1       -0.0001
     27 C          68.2092   93.6964    8.5665 C.ar    1  UNL1        0.0023
     28 C          67.5140   94.9242    9.0754 C.ar    1  UNL1        0.0294
     29 C          66.8132   94.8940   10.4014 C.ar    1  UNL1        0.1374
     30 F          66.1180   96.1218   10.9103 F       1  UNL1       -0.2045
@<TRIPOS>BOND
     1    12    13    1
     2    13     2    1
     3     2     3   ar
     4     3     4   ar
     5     4     5   ar
     6     5     6   ar
     7     6     7   ar
     8     7    14    1
     9    14    15    1
    10     5     8    1
    11     8     9    2
    12     8    10    1
    13    10     1    1
    14     1    16    1
    15    16    17    1
    16    16    18    1
    17    18    19    1
    18    19    20    1
    19    20    23    1
    20    23    24    1
    21    24    25   ar
    22    25    26   ar
    23    26    27   ar
    24    27    28   ar
    25    28    29   ar
    26    29    30    1
    27    20    21    1
    28    21    22    1
    29    10    11    1
    30     7     2   ar
    31    22    16    1
    32    11     4    1
    33    29    24   ar
@<TRIPOS>MOLECULE
*****
 30 33 0 0 0
SMALL
GASTEIGER

@<TRIPOS>ATOM
      1 C          61.6461   89.0175   11.4600 C.3     1  UNL1        0.0407
      2 C          63.9736   83.0514   12.2305 C.ar    1  UNL1        0.1721
      3 C          63.7060   84.3405   12.9493 C.ar    1  UNL1        0.0359
      4 C          63.0986   85.4976   12.2130 C.ar    1  UNL1       -0.0158
      5 C          62.7588   85.3658   10.7580 C.ar    1  UNL1        0.0340
      6 C          63.0264   84.0767   10.0392 C.ar    1  UNL1        0.0426
      7 C          63.6338   82.9196   10.7755 C.ar    1  UNL1        0.1725
      8 C          62.1734   86.6682   10.2989 C.2     1  UNL1        0.1728
      9 O          61.6941   86.9792    8.9119 O.2     1  UNL1       -0.2913
     10 C          62.1513   87.6051   11.4701 C.3     1  UNL1        0.0689
     11 C          62.7231   86.8817   12.6532 C.3     1  UNL1        0.0343
     12 C          63.7128   80.9914   13.7919 C.3     1  UNL1        0.2526
     13 O          64.5810   81.8943   12.9667 O.3     1  UNL1       -0.4684
     14 O          63.9014   81.6305   10.0566 O.3     1  UNL1       -0.4684
     15 C          62.9874   80.4577   10.2543 C.3     1  UNL1        0.2526
     16 C          62.5037   90.1168   10.9071 C.3     1  UNL1        0.1369
     17 F          61.6703   89.8044    9.6997 F       1  UNL1       -0.2399
     18 C          63.0393   90.0474   12.3064 C.3     1  UNL1        0.0500
     19 C          64.1431   90.9689   12.7336 C.3     1  UNL1        0.0751
     20 N          64.7113   91.9599   11.7613 N.3     1  UNL1       -0.2687
     21 C          64.1757   92.0293   10.3620 C.3     1  UNL1        0.0751
     22 C          63.0719   91.1078    9.9348 C.3     1  UNL1        0.0500
     23 C          65.8151   92.8813   12.1885 C.3     1  UNL1        0.1014
     24 C          66.3898   93.8657   11.2134 C.ar    1  UNL1        0.0213
     25 C          66.1133   95.3310   11.3759 C.ar    1  UNL1       -0.0007
     26 C          66.6880   96.3154   10.4008 C.ar    1  UNL1       -0.0001
     27 C          67.5393   95.8344    9.2633 C.ar    1  UNL1        0.0023
     28 C          67.8159   94.3691    9.1009 C.ar    1  UNL1        0.0294
     29 C          67.2411   93.3848   10.0759 C.ar    1  UNL1        0.1374
     30 F          67.5177   91.9195    9.9135 F       1  UNL1       -0.2045
@<TRIPOS>BOND
     1    12    13    1
     2    13     2    1
     3     2     3   ar
     4     3     4   ar
     5     4     5   ar
     6     5     6   ar
     7     6     7   ar
     8     7    14    1
     9    14    15    1
    10     5     8    1
    11     8     9    2
    12     8    10    1
    13    10     1    1
    14     1    16    1
    15    16    17    1
    16    16    18    1
    17    18    19    1
    18    19    20    1
    19    20    23    1
    20    23    24    1
    21    24    25   ar
    22    25    26   ar
    23    26    27   ar
    24    27    28   ar
    25    28    29   ar
    26    29    30    1
    27    20    21    1
    28    21    22    1
    29    10    11    1
    30     7     2   ar
    31    22    16    1
    32    11     4    1
    33    29    24   ar
@<TRIPOS>MOLECULE
*****
 30 33 0 0 0
SMALL
GASTEIGER

@<TRIPOS>ATOM
      1 C          63.6380   84.1964   14.1373 C.3     1  UNL1        0.0407
      2 C          61.3420   85.8543    8.3421 C.ar    1  UNL1        0.1721
      3 C          61.1371   86.0424    9.8160 C.ar    1  UNL1        0.0359
      4 C          62.0471   85.3587   10.7930 C.ar    1  UNL1       -0.0158
      5 C          63.1619   84.4869   10.2961 C.ar    1  UNL1        0.0340
      6 C          63.3668   84.2987    8.8221 C.ar    1  UNL1        0.0426
      7 C          62.4568   84.9825    7.8451 C.ar    1  UNL1        0.1725
      8 C          63.8935   83.9454   11.4883 C.2     1  UNL1        0.1728
      9 O          65.0796   83.0278   11.4529 O.2     1  UNL1       -0.2913
     10 C          63.2309   84.4825   12.7222 C.3     1  UNL1        0.0689
     11 C          62.0897   85.3561   12.2925 C.3     1  UNL1        0.0343
     12 C          59.0673   86.9854    7.7977 C.3     1  UNL1        0.2526
     13 O          60.4321   86.5380    7.3651 O.3     1  UNL1       -0.4684
     14 O          62.6618   84.7943    6.3711 O.3     1  UNL1       -0.4684
     15 C          61.6466   84.0419    5.5628 C.3     1  UNL1        0.2526
     16 C          63.4189   85.2280   15.2039 C.3     1  UNL1        0.1369
     17 F          62.9431   84.0021   15.9256 F       1  UNL1       -0.2399
     18 C          63.9708   86.0956   14.1118 C.3     1  UNL1        0.0500
     19 C          64.1385   87.5691   14.3369 C.3     1  UNL1        0.0751
     20 N          63.7542   88.1750   15.6542 N.3     1  UNL1       -0.2687
     21 C          63.2023   87.3075   16.7463 C.3     1  UNL1        0.0751
     22 C          63.0346   85.8340   16.5212 C.3     1  UNL1        0.0500
     23 C          63.9219   89.6485   15.8794 C.3     1  UNL1        0.1014
     24 C          64.4314   90.5231   14.7723 C.ar    1  UNL1        0.0213
     25 C          65.7661   91.1951   14.9013 C.ar    1  UNL1       -0.0007
     26 C          66.2756   92.0698   13.7943 C.ar    1  UNL1       -0.0001
     27 C          65.4503   92.2724   12.5583 C.ar    1  UNL1        0.0023
     28 C          64.1155   91.6004   12.4293 C.ar    1  UNL1        0.0294
     29 C          63.6060   90.7257   13.5363 C.ar    1  UNL1        0.1374
     30 F          62.2712   90.0537   13.4073 F       1  UNL1       -0.2045
@<TRIPOS>BOND
     1    12    13    1
     2    13     2    1
     3     2     3   ar
     4     3     4   ar
     5     4     5   ar
     6     5     6   ar
     7     6     7   ar
     8     7    14    1
     9    14    15    1
    10     5     8    1
    11     8     9    2
    12     8    10    1
    13    10     1    1
    14     1    16    1
    15    16    17    1
    16    16    18    1
    17    18    19    1
    18    19    20    1
    19    20    23    1
    20    23    24    1
    21    24    25   ar
    22    25    26   ar
    23    26    27   ar
    24    27    28   ar
    25    28    29   ar
    26    29    30    1
    27    20    21    1
    28    21    22    1
    29    10    11    1
    30     7     2   ar
    31    22    16    1
    32    11     4    1
    33    29    24   ar
@<TRIPOS>MOLECULE
*****
 30 33 0 0 0
SMALL
GASTEIGER

@<TRIPOS>ATOM
      1 C          63.7682   90.5660   13.5538 C.3     1  UNL1        0.0407
      2 C          63.7928   84.1159   13.5299 C.ar    1  UNL1        0.1721
      3 C          64.1910   85.3175   14.3346 C.ar    1  UNL1        0.0359
      4 C          63.9188   86.6958   13.8093 C.ar    1  UNL1       -0.0158
      5 C          63.2483   86.8726   12.4792 C.ar    1  UNL1        0.0340
      6 C          62.8501   85.6711   11.6745 C.ar    1  UNL1        0.0426
      7 C          63.1223   84.2927   12.1998 C.ar    1  UNL1        0.1725
      8 C          63.1103   88.3439   12.2216 C.2     1  UNL1        0.1728
      9 O          62.4951   88.9723   11.0064 O.2     1  UNL1       -0.2913
     10 C          63.6955   89.0764   13.3925 C.3     1  UNL1        0.0689
     11 C          64.1951   88.0578   14.3738 C.3     1  UNL1        0.0343
     12 C          62.9347   81.8903   14.5596 C.3     1  UNL1        0.2526
     13 O          64.0651   82.7375   14.0552 O.3     1  UNL1       -0.4684
     14 O          62.7241   83.0911   11.3950 O.3     1  UNL1       -0.4684
     15 C          63.7650   82.3082   10.6510 C.3     1  UNL1        0.2526
     16 C          65.1002   91.2557   13.5587 C.3     1  UNL1        0.1369
     17 F          65.1308   90.6206   14.9173 F       1  UNL1       -0.2399
     18 C          64.6070   91.6512   12.1985 C.3     1  UNL1        0.0500
     19 C          65.4564   92.5160   11.3149 C.3     1  UNL1        0.0751
     20 N          66.7990   92.9851   11.7916 N.3     1  UNL1       -0.2687
     21 C          67.2922   92.5896   13.1518 C.3     1  UNL1        0.0751
     22 C          66.4428   91.7249   14.0354 C.3     1  UNL1        0.0500
     23 C          67.6484   93.8499   10.9080 C.3     1  UNL1        0.1014
     24 C          67.0025   94.8066    9.9502 C.ar    1  UNL1        0.0213
     25 C          67.2527   94.6766    8.4770 C.ar    1  UNL1       -0.0007
     26 C          66.6067   95.6334    7.5192 C.ar    1  UNL1       -0.0001
     27 C          65.7105   96.7202    8.0347 C.ar    1  UNL1        0.0023
     28 C          65.4603   96.8502    9.5079 C.ar    1  UNL1        0.0294
     29 C          66.1063   95.8934   10.4657 C.ar    1  UNL1        0.1374
     30 F          65.8561   96.0235   11.9389 F       1  UNL1       -0.2045
@<TRIPOS>BOND
     1    12    13    1
     2    13     2    1
     3     2     3   ar
     4     3     4   ar
     5     4     5   ar
     6     5     6   ar
     7     6     7   ar
     8     7    14    1
     9    14    15    1
    10     5     8    1
    11     8     9    2
    12     8    10    1
    13    10     1    1
    14     1    16    1
    15    16    17    1
    16    16    18    1
    17    18    19    1
    18    19    20    1
    19    20    23    1
    20    23    24    1
    21    24    25   ar
    22    25    26   ar
    23    26    27   ar
    24    27    28   ar
    25    28    29   ar
    26    29    30    1
    27    20    21    1
    28    21    22    1
    29    10    11    1
    30     7     2   ar
    31    22    16    1
    32    11     4    1
    33    29    24   ar
@<TRIPOS>MOLECULE
*****
 30 33 0 0 0
SMALL
GASTEIGER

@<TRIPOS>ATOM
      1 C          61.6875   88.9784   11.8477 C.3     1  UNL1        0.0407
      2 C          66.5935   92.9179   13.2677 C.ar    1  UNL1        0.1721
      3 C          65.7468   91.8062   13.8127 C.ar    1  UNL1        0.0359
      4 C          64.6539   91.2147   12.9726 C.ar    1  UNL1       -0.0158
      5 C          64.4077   91.7350   11.5875 C.ar    1  UNL1        0.0340
      6 C          65.2544   92.8467   11.0425 C.ar    1  UNL1        0.0426
      7 C          66.3473   93.4382   11.8826 C.ar    1  UNL1        0.1725
      8 C          63.2665   90.9606   10.9975 C.2     1  UNL1        0.1728
      9 O          62.6864   91.1516    9.6275 O.2     1  UNL1       -0.2913
     10 C          62.8075   89.9617   12.0180 C.3     1  UNL1        0.0689
     11 C          63.6649   90.1187   13.2387 C.3     1  UNL1        0.0343
     12 C          67.6621   93.3397   15.5979 C.3     1  UNL1        0.2526
     13 O          67.6864   93.5093   14.1078 O.3     1  UNL1       -0.4684
     14 O          67.1941   94.5499   11.3375 O.3     1  UNL1       -0.4684
     15 C          66.5515   95.6982   10.6174 C.3     1  UNL1        0.2526
     16 C          61.4621   88.3213   10.5182 C.3     1  UNL1        0.1369
     17 F          62.5378   87.4326   11.0689 F       1  UNL1       -0.2399
     18 C          60.4648   89.4382   10.4293 C.3     1  UNL1        0.0500
     19 C          59.6156   89.5894    9.2021 C.3     1  UNL1        0.0751
     20 N          59.7637   88.6236    8.0639 N.3     1  UNL1       -0.2687
     21 C          60.7610   87.5068    8.1528 C.3     1  UNL1        0.0751
     22 C          61.6103   87.3556    9.3800 C.3     1  UNL1        0.0500
     23 C          58.9145   88.7748    6.8367 C.3     1  UNL1        0.1014
     24 C          59.0862   89.9714    5.9486 C.ar    1  UNL1        0.0213
     25 C          60.4596   90.3989    5.5233 C.ar    1  UNL1       -0.0007
     26 C          60.6313   91.5955    4.6352 C.ar    1  UNL1       -0.0001
     27 C          59.4296   92.3646    4.1724 C.ar    1  UNL1        0.0023
     28 C          58.0561   91.9371    4.5976 C.ar    1  UNL1        0.0294
     29 C          57.8844   90.7405    5.4858 C.ar    1  UNL1        0.1374
     30 F          56.5110   90.3131    5.9110 F       1  UNL1       -0.2045
@<TRIPOS>BOND
     1    12    13    1
     2    13     2    1
     3     2     3   ar
     4     3     4   ar
     5     4     5   ar
     6     5     6   ar
     7     6     7   ar
     8     7    14    1
     9    14    15    1
    10     5     8    1
    11     8     9    2
    12     8    10    1
    13    10     1    1
    14     1    16    1
    15    16    17    1
    16    16    18    1
    17    18    19    1
    18    19    20    1
    19    20    23    1
    20    23    24    1
    21    24    25   ar
    22    25    26   ar
    23    26    27   ar
    24    27    28   ar
    25    28    29   ar
    26    29    30    1
    27    20    21    1
    28    21    22    1
    29    10    11    1
    30     7     2   ar
    31    22    16    1
    32    11     4    1
    33    29    24   ar
@<TRIPOS>MOLECULE
*****
 30 33 0 0 0
SMALL
GASTEIGER

@<TRIPOS>ATOM
      1 C          62.6957   90.2090   12.4117 C.3     1  UNL1        0.0407
      2 C          62.8989   83.8130   11.6026 C.ar    1  UNL1        0.1721
      3 C          62.4151   85.0895   10.9810 C.ar    1  UNL1        0.0359
      4 C          62.6673   86.3999   11.6658 C.ar    1  UNL1       -0.0158
      5 C          63.4032   86.4339   12.9724 C.ar    1  UNL1        0.0340
      6 C          63.8870   85.1575   13.5941 C.ar    1  UNL1        0.0426
      7 C          63.6348   83.8470   12.9092 C.ar    1  UNL1        0.1725
      8 C          63.5034   87.8649   13.4108 C.2     1  UNL1        0.1728
      9 O          64.1621   88.3588   14.6647 O.2     1  UNL1       -0.2913
     10 C          62.8294   88.7153   12.3752 C.3     1  UNL1        0.0689
     11 C          62.3126   87.8100   11.2967 C.3     1  UNL1        0.0343
     12 C          63.7957   81.7098   10.3688 C.3     1  UNL1        0.2526
     13 O          62.6467   82.5025   10.9178 O.3     1  UNL1       -0.4684
     14 O          64.1187   82.5705   13.5310 O.3     1  UNL1       -0.4684
     15 C          63.1424   81.6364   14.1823 C.3     1  UNL1        0.2526
     16 C          63.8654   91.0571   12.8146 C.3     1  UNL1        0.1369
     17 F          63.4229   90.5668   14.1615 F       1  UNL1       -0.2399
     18 C          63.9016   91.2528   11.3279 C.3     1  UNL1        0.0500
     19 C          64.9539   92.1263   10.7118 C.3     1  UNL1        0.0751
     20 N          65.9700   92.8042   11.5825 N.3     1  UNL1       -0.2687
     21 C          65.9338   92.6085   13.0692 C.3     1  UNL1        0.0751
     22 C          64.8815   91.7350   13.6853 C.3     1  UNL1        0.0500
     23 C          67.0223   93.6777   10.9664 C.3     1  UNL1        0.1014
     24 C          66.6362   94.7208    9.9599 C.ar    1  UNL1        0.0213
     25 C          65.6576   95.7952   10.3310 C.ar    1  UNL1       -0.0007
     26 C          65.2715   96.8383    9.3245 C.ar    1  UNL1       -0.0001
     27 C          65.8641   96.8068    7.9469 C.ar    1  UNL1        0.0023
     28 C          66.8427   95.7324    7.5758 C.ar    1  UNL1        0.0294
     29 C          67.2288   94.6894    8.5823 C.ar    1  UNL1        0.1374
     30 F          68.2075   93.6149    8.2112 F       1  UNL1       -0.2045
@<TRIPOS>BOND
     1    12    13    1
     2    13     2    1
     3     2     3   ar
     4     3     4   ar
     5     4     5   ar
     6     5     6   ar
     7     6     7   ar
     8     7    14    1
     9    14    15    1
    10     5     8    1
    11     8     9    2
    12     8    10    1
    13    10     1    1
    14     1    16    1
    15    16    17    1
    16    16    18    1
    17    18    19    1
    18    19    20    1
    19    20    23    1
    20    23    24    1
    21    24    25   ar
    22    25    26   ar
    23    26    27   ar
    24    27    28   ar
    25    28    29   ar
    26    29    30    1
    27    20    21    1
    28    21    22    1
    29    10    11    1
    30     7     2   ar
    31    22    16    1
    32    11     4    1
    33    29    24   ar
