@<TRIPOS>MOLECULE
*****
 34 38 0 0 0
SMALL
GASTEIGER

@<TRIPOS>ATOM
      1 C          62.7664   86.8742   11.9090 C.2     1  UNL1        0.2506
      2 O          63.5740   87.4913   13.0122 O.2     1  UNL1       -0.2699
      3 N          61.7675   87.7028   11.1571 N.am    1  UNL1       -0.2723
      4 C          60.9599   87.0858   10.0538 C.3     1  UNL1        0.1257
      5 C          59.9609   87.9144    9.3019 C.3     1  UNL1        0.1637
      6 O          59.7695   89.3601    9.6531 O.3     1  UNL1       -0.3502
      7 C          60.5771   89.9771   10.7563 C.3     1  UNL1        0.1622
      8 C          61.5761   89.1485   11.5083 C.3     1  UNL1        0.1097
      9 C          63.5321   81.0915   10.5040 C.3     1  UNL1        0.0307
     10 C          63.3407   82.5372   10.8553 C.ar    1  UNL1       -0.0243
     11 C          63.1845   83.5588    9.7682 C.ar    1  UNL1       -0.0043
     12 C          62.9931   85.0045   10.1194 C.ar    1  UNL1        0.0057
     13 C          62.9578   85.4285   11.5578 C.ar    1  UNL1        0.0726
     14 C          63.1140   84.4069   12.6449 C.ar    1  UNL1        0.1029
     15 C          63.3054   82.9612   12.2936 C.ar    1  UNL1       -0.0062
     16 C          63.4616   81.9396   13.3808 C.3     1  UNL1        0.0323
     17 N          63.0787   84.8309   14.0833 N.ar    1  UNL1       -0.1480
     18 N          64.2338   85.3750   14.8707 N.ar    1  UNL1       -0.1447
     19 C          63.7512   85.6657   16.2608 C.ar    1  UNL1        0.1446
     20 C          62.2979   85.3011   16.3327 C.ar    1  UNL1        0.1446
     21 N          61.8823   84.7853   14.9869 N.ar    1  UNL1       -0.1447
     22 C          62.3836   89.7656   12.6115 C.3     1  UNL1        0.0510
     23 C          63.5152   90.6940   12.2837 C.ar    1  UNL1        0.0086
     24 C          64.5131   91.0629   13.3410 C.ar    1  UNL1        0.0189
     25 C          65.6447   91.9913   13.0132 C.ar    1  UNL1        0.1027
     26 C          65.7783   92.5510   11.6279 C.ar    1  UNL1        0.0232
     27 C          64.7804   92.1821   10.5706 C.ar    1  UNL1        0.0309
     28 C          63.6488   91.2537   10.8984 C.ar    1  UNL1        0.1363
     29 F          62.6508   90.8848    9.8410 F       1  UNL1       -0.2045
     30 N          66.6426   92.3601   14.0706 N.ar    1  UNL1       -0.1478
     31 N          68.1319   92.4105   13.8983 N.ar    1  UNL1       -0.1447
     32 C          68.7362   92.8248   15.2071 C.ar    1  UNL1        0.1446
     33 C          67.6204   93.0305   16.1884 C.ar    1  UNL1        0.1446
     34 N          66.3266   92.7433   15.4860 N.ar    1  UNL1       -0.1447
@<TRIPOS>BOND
     1     9    10    1
     2    10    11   ar
     3    11    12   ar
     4    12    13   ar
     5    13     1    1
     6     1     2    2
     7     1     3   am
     8     3     4    1
     9     4     5    1
    10     5     6    1
    11     6     7    1
    12     7     8    1
    13     8    22    1
    14    22    23    1
    15    23    24   ar
    16    24    25   ar
    17    25    30    1
    18    30    31   ar
    19    31    32   ar
    20    32    33   ar
    21    33    34   ar
    22    25    26   ar
    23    26    27   ar
    24    27    28   ar
    25    28    29    1
    26    13    14   ar
    27    14    17    1
    28    17    18   ar
    29    18    19   ar
    30    19    20   ar
    31    20    21   ar
    32    14    15   ar
    33    15    16    1
    34    15    10   ar
    35     8     3    1
    36    28    23   ar
    37    21    17   ar
    38    34    30   ar
@<TRIPOS>MOLECULE
*****
 34 38 0 0 0
SMALL
GASTEIGER

@<TRIPOS>ATOM
      1 C          63.0043   87.0573   12.2705 C.2     1  UNL1        0.2506
      2 O          63.5851   87.4692   13.5907 O.2     1  UNL1       -0.2699
      3 N          62.3323   88.0746   11.3967 N.am    1  UNL1       -0.2723
      4 C          61.7514   87.6627   10.0765 C.3     1  UNL1        0.1257
      5 C          61.0793   88.6799    9.2027 C.3     1  UNL1        0.1637
      6 O          60.9881   90.1091    9.6491 O.3     1  UNL1       -0.3502
      7 C          61.5690   90.5210   10.9693 C.3     1  UNL1        0.1622
      8 C          62.2411   89.5037   11.8431 C.3     1  UNL1        0.1097
      9 C          63.3691   81.3408   10.4848 C.3     1  UNL1        0.0307
     10 C          63.2779   82.7699   10.9312 C.ar    1  UNL1       -0.0243
     11 C          63.2159   83.8708    9.9143 C.ar    1  UNL1       -0.0043
     12 C          63.1247   85.3000   10.3608 C.ar    1  UNL1        0.0057
     13 C          63.0955   85.6282   11.8241 C.ar    1  UNL1        0.0726
     14 C          63.1576   84.5273   12.8410 C.ar    1  UNL1        0.1029
     15 C          63.2488   83.0982   12.3946 C.ar    1  UNL1       -0.0062
     16 C          63.3108   81.9973   13.4116 C.3     1  UNL1        0.0323
     17 N          63.1284   84.8555   14.3044 N.ar    1  UNL1       -0.1480
     18 N          61.9137   84.8528   15.1845 N.ar    1  UNL1       -0.1447
     19 C          62.3433   85.2396   16.5687 C.ar    1  UNL1        0.1446
     20 C          63.8236   85.4814   16.5439 C.ar    1  UNL1        0.1446
     21 N          64.3087   85.2440   15.1446 N.ar    1  UNL1       -0.1447
     22 C          62.8219   89.9156   13.1633 C.3     1  UNL1        0.0510
     23 C          64.1165   90.6718   13.2100 C.ar    1  UNL1        0.0086
     24 C          64.4878   91.5931   12.0860 C.ar    1  UNL1        0.0189
     25 C          65.7823   92.3494   12.1327 C.ar    1  UNL1        0.1027
     26 C          66.7056   92.1844   13.3033 C.ar    1  UNL1        0.0232
     27 C          66.3342   91.2631   14.4272 C.ar    1  UNL1        0.0309
     28 C          65.0397   90.5068   14.3806 C.ar    1  UNL1        0.1363
     29 F          64.6684   89.5855   15.5046 F       1  UNL1       -0.2045
     30 N          66.1536   93.2707   11.0086 N.ar    1  UNL1       -0.1478
     31 N          67.1317   92.9729    9.9110 N.ar    1  UNL1       -0.1447
     32 C          67.1946   94.1697    9.0089 C.ar    1  UNL1        0.1446
     33 C          66.2554   95.2071    9.5490 C.ar    1  UNL1        0.1446
     34 N          65.6121   94.6515   10.7849 N.ar    1  UNL1       -0.1447
@<TRIPOS>BOND
     1     9    10    1
     2    10    11   ar
     3    11    12   ar
     4    12    13   ar
     5    13     1    1
     6     1     2    2
     7     1     3   am
     8     3     4    1
     9     4     5    1
    10     5     6    1
    11     6     7    1
    12     7     8    1
    13     8    22    1
    14    22    23    1
    15    23    24   ar
    16    24    25   ar
    17    25    30    1
    18    30    31   ar
    19    31    32   ar
    20    32    33   ar
    21    33    34   ar
    22    25    26   ar
    23    26    27   ar
    24    27    28   ar
    25    28    29    1
    26    13    14   ar
    27    14    17    1
    28    17    18   ar
    29    18    19   ar
    30    19    20   ar
    31    20    21   ar
    32    14    15   ar
    33    15    16    1
    34    15    10   ar
    35     8     3    1
    36    28    23   ar
    37    21    17   ar
    38    34    30   ar
@<TRIPOS>MOLECULE
*****
 34 38 0 0 0
SMALL
GASTEIGER

@<TRIPOS>ATOM
      1 C          63.5047   87.3992   13.2510 C.2     1  UNL1        0.2506
      2 O          63.5011   88.0283   11.8893 O.2     1  UNL1       -0.2699
      3 N          63.3854   88.2587   14.4745 N.am    1  UNL1       -0.2723
      4 C          63.3889   87.6296   15.8363 C.3     1  UNL1        0.1257
      5 C          63.2696   88.4891   17.0598 C.3     1  UNL1        0.1637
      6 O          63.1467   89.9777   16.9216 O.3     1  UNL1       -0.3502
      7 C          63.1432   90.6068   15.5599 C.3     1  UNL1        0.1622
      8 C          63.2625   89.7473   14.3363 C.3     1  UNL1        0.1097
      9 C          63.9961   81.4450   13.8037 C.3     1  UNL1        0.0307
     10 C          63.8733   82.9335   13.6655 C.ar    1  UNL1       -0.0243
     11 C          64.4949   83.8357   14.6900 C.ar    1  UNL1       -0.0043
     12 C          64.3720   85.3243   14.5518 C.ar    1  UNL1        0.0057
     13 C          63.6275   85.9107   13.3892 C.ar    1  UNL1        0.0726
     14 C          63.0059   85.0085   12.3647 C.ar    1  UNL1        0.1029
     15 C          63.1288   83.5199   12.5029 C.ar    1  UNL1       -0.0062
     16 C          62.5071   82.6178   11.4783 C.3     1  UNL1        0.0323
     17 N          62.2614   85.5949   11.2020 N.ar    1  UNL1       -0.1480
     18 N          62.6535   85.4854    9.7582 N.ar    1  UNL1       -0.1447
     19 C          61.6285   86.2165    8.9428 C.ar    1  UNL1        0.1446
     20 C          60.6029   86.7778    9.8826 C.ar    1  UNL1        0.1446
     21 N          60.9941   86.3936   11.2788 N.ar    1  UNL1       -0.1447
     22 C          63.2590   90.3764   12.9747 C.3     1  UNL1        0.0510
     23 C          64.3664   91.3057   12.5750 C.ar    1  UNL1        0.0086
     24 C          65.4429   91.6566   13.5588 C.ar    1  UNL1        0.0189
     25 C          66.5504   92.5860   13.1591 C.ar    1  UNL1        0.1027
     26 C          66.5814   93.1645   11.7756 C.ar    1  UNL1        0.0232
     27 C          65.5049   92.8136   10.7917 C.ar    1  UNL1        0.0309
     28 C          64.3974   91.8842   11.1914 C.ar    1  UNL1        0.1363
     29 F          63.3209   91.5334   10.2074 F       1  UNL1       -0.2045
     30 N          67.6269   92.9368   14.1431 N.ar    1  UNL1       -0.1478
     31 N          69.0433   92.4437   14.1134 N.ar    1  UNL1       -0.1447
     32 C          69.7678   93.0445   15.2814 C.ar    1  UNL1        0.1446
     33 C          68.7992   93.9089   16.0329 C.ar    1  UNL1        0.1446
     34 N          67.4761   93.8423   15.3294 N.ar    1  UNL1       -0.1447
@<TRIPOS>BOND
     1     9    10    1
     2    10    11   ar
     3    11    12   ar
     4    12    13   ar
     5    13     1    1
     6     1     2    2
     7     1     3   am
     8     3     4    1
     9     4     5    1
    10     5     6    1
    11     6     7    1
    12     7     8    1
    13     8    22    1
    14    22    23    1
    15    23    24   ar
    16    24    25   ar
    17    25    30    1
    18    30    31   ar
    19    31    32   ar
    20    32    33   ar
    21    33    34   ar
    22    25    26   ar
    23    26    27   ar
    24    27    28   ar
    25    28    29    1
    26    13    14   ar
    27    14    17    1
    28    17    18   ar
    29    18    19   ar
    30    19    20   ar
    31    20    21   ar
    32    14    15   ar
    33    15    16    1
    34    15    10   ar
    35     8     3    1
    36    28    23   ar
    37    21    17   ar
    38    34    30   ar
@<TRIPOS>MOLECULE
*****
 34 38 0 0 0
SMALL
GASTEIGER

@<TRIPOS>ATOM
      1 C          62.7109   88.7018   11.6537 C.2     1  UNL1        0.2506
      2 O          62.5697   90.1946   11.6142 O.2     1  UNL1       -0.2699
      3 N          63.3765   88.0422   12.8250 N.am    1  UNL1       -0.2723
      4 C          63.5177   86.5494   12.8645 C.3     1  UNL1        0.1257
      5 C          64.1833   85.8898   14.0358 C.3     1  UNL1        0.1637
      6 O          64.7077   86.7230   15.1675 O.3     1  UNL1       -0.3502
      7 C          64.5665   88.2158   15.1280 C.3     1  UNL1        0.1622
      8 C          63.9009   88.8754   13.9567 C.3     1  UNL1        0.1097
      9 C          60.6133   85.3690    7.1269 C.3     1  UNL1        0.0307
     10 C          61.1377   86.2022    8.2586 C.ar    1  UNL1       -0.0243
     11 C          62.5731   86.0812    8.6766 C.ar    1  UNL1       -0.0043
     12 C          63.0975   86.9144    9.8083 C.ar    1  UNL1        0.0057
     13 C          62.1865   87.8686   10.5220 C.ar    1  UNL1        0.0726
     14 C          60.7510   87.9896   10.1040 C.ar    1  UNL1        0.1029
     15 C          60.2266   87.1564    8.9723 C.ar    1  UNL1       -0.0062
     16 C          58.7911   87.2774    8.5543 C.3     1  UNL1        0.0323
     17 N          59.8399   88.9438   10.8177 N.ar    1  UNL1       -0.1480
     18 N          58.9999   88.6287   12.0199 N.ar    1  UNL1       -0.1447
     19 C          58.2497   89.8707   12.3997 C.ar    1  UNL1        0.1446
     20 C          58.6259   90.9536   11.4323 C.ar    1  UNL1        0.1446
     21 N          59.6087   90.3807   10.4546 N.ar    1  UNL1       -0.1447
     22 C          63.7597   90.3682   13.9171 C.3     1  UNL1        0.0510
     23 C          64.9823   91.2366   13.8852 C.ar    1  UNL1        0.0086
     24 C          65.6207   91.5850   12.5734 C.ar    1  UNL1        0.0189
     25 C          66.8434   92.4535   12.5414 C.ar    1  UNL1        0.1027
     26 C          67.4275   92.9735   13.8214 C.ar    1  UNL1        0.0232
     27 C          66.7891   92.6251   15.1332 C.ar    1  UNL1        0.0309
     28 C          65.5665   91.7567   15.1651 C.ar    1  UNL1        0.1363
     29 F          64.9280   91.4083   16.4771 F       1  UNL1       -0.2045
     30 N          67.4818   92.8018   11.2295 N.ar    1  UNL1       -0.1478
     31 N          67.2464   94.0551   10.4397 N.ar    1  UNL1       -0.1447
     32 C          68.0868   93.9860    9.1991 C.ar    1  UNL1        0.1446
     33 C          68.8416   92.6899    9.2223 C.ar    1  UNL1        0.1446
     34 N          68.4677   91.9581   10.4771 N.ar    1  UNL1       -0.1447
@<TRIPOS>BOND
     1     9    10    1
     2    10    11   ar
     3    11    12   ar
     4    12    13   ar
     5    13     1    1
     6     1     2    2
     7     1     3   am
     8     3     4    1
     9     4     5    1
    10     5     6    1
    11     6     7    1
    12     7     8    1
    13     8    22    1
    14    22    23    1
    15    23    24   ar
    16    24    25   ar
    17    25    30    1
    18    30    31   ar
    19    31    32   ar
    20    32    33   ar
    21    33    34   ar
    22    25    26   ar
    23    26    27   ar
    24    27    28   ar
    25    28    29    1
    26    13    14   ar
    27    14    17    1
    28    17    18   ar
    29    18    19   ar
    30    19    20   ar
    31    20    21   ar
    32    14    15   ar
    33    15    16    1
    34    15    10   ar
    35     8     3    1
    36    28    23   ar
    37    21    17   ar
    38    34    30   ar
@<TRIPOS>MOLECULE
*****
 34 38 0 0 0
SMALL
GASTEIGER

@<TRIPOS>ATOM
      1 C          62.7682   89.0059   11.6598 C.2     1  UNL1        0.2506
      2 O          62.9462   87.8375   12.5834 O.2     1  UNL1       -0.2699
      3 N          61.7372   88.9514   10.5717 N.am    1  UNL1       -0.2723
      4 C          61.5592   90.1198    9.6479 C.3     1  UNL1        0.1257
      5 C          60.5282   90.0654    8.5599 C.3     1  UNL1        0.1637
      6 O          59.6751   88.8426    8.3955 O.3     1  UNL1       -0.3502
      7 C          59.8531   87.6742    9.3191 C.3     1  UNL1        0.1622
      8 C          60.8841   87.7286   10.4073 C.3     1  UNL1        0.1097
      9 C          66.1805   93.8971   12.3174 C.3     1  UNL1        0.0307
     10 C          65.3274   92.6743   12.1530 C.ar    1  UNL1       -0.0243
     11 C          64.7780   92.3190   10.8033 C.ar    1  UNL1       -0.0043
     12 C          63.9249   91.0962   10.6388 C.ar    1  UNL1        0.0057
     13 C          63.6213   90.2287   11.8242 C.ar    1  UNL1        0.0726
     14 C          64.1708   90.5839   13.1739 C.ar    1  UNL1        0.1029
     15 C          65.0238   91.8067   13.3383 C.ar    1  UNL1       -0.0062
     16 C          65.5733   92.1619   14.6882 C.3     1  UNL1        0.0323
     17 N          63.8672   89.7163   14.3594 N.ar    1  UNL1       -0.1480
     18 N          62.8266   89.9856   15.4057 N.ar    1  UNL1       -0.1447
     19 C          62.8671   88.8629   16.3995 C.ar    1  UNL1        0.1446
     20 C          63.9328   87.8996   15.9674 C.ar    1  UNL1        0.1446
     21 N          64.5508   88.4270   14.7065 N.ar    1  UNL1       -0.1447
     22 C          61.0621   86.5603   11.3309 C.3     1  UNL1        0.0510
     23 C          61.9509   85.4190   10.9340 C.ar    1  UNL1        0.0086
     24 C          62.0772   84.2208   11.8276 C.ar    1  UNL1        0.0189
     25 C          62.9660   83.0796   11.4307 C.ar    1  UNL1        0.1027
     26 C          63.7286   83.1365   10.1403 C.ar    1  UNL1        0.0232
     27 C          63.6023   84.3346    9.2468 C.ar    1  UNL1        0.0309
     28 C          62.7135   85.4759    9.6436 C.ar    1  UNL1        0.1363
     29 F          62.5873   86.6741    8.7500 F       1  UNL1       -0.2045
     30 N          63.0922   81.8814   12.3243 N.ar    1  UNL1       -0.1478
     31 N          62.6671   80.4825   11.9887 N.ar    1  UNL1       -0.1447
     32 C          62.9778   79.6083   13.1673 C.ar    1  UNL1        0.1446
     33 C          63.5950   80.4668   14.2313 C.ar    1  UNL1        0.1446
     34 N          63.6657   81.8716   13.7102 N.ar    1  UNL1       -0.1447
@<TRIPOS>BOND
     1     9    10    1
     2    10    11   ar
     3    11    12   ar
     4    12    13   ar
     5    13     1    1
     6     1     2    2
     7     1     3   am
     8     3     4    1
     9     4     5    1
    10     5     6    1
    11     6     7    1
    12     7     8    1
    13     8    22    1
    14    22    23    1
    15    23    24   ar
    16    24    25   ar
    17    25    30    1
    18    30    31   ar
    19    31    32   ar
    20    32    33   ar
    21    33    34   ar
    22    25    26   ar
    23    26    27   ar
    24    27    28   ar
    25    28    29    1
    26    13    14   ar
    27    14    17    1
    28    17    18   ar
    29    18    19   ar
    30    19    20   ar
    31    20    21   ar
    32    14    15   ar
    33    15    16    1
    34    15    10   ar
    35     8     3    1
    36    28    23   ar
    37    21    17   ar
    38    34    30   ar
@<TRIPOS>MOLECULE
*****
 34 38 0 0 0
SMALL
GASTEIGER

@<TRIPOS>ATOM
      1 C          63.7175   87.9098   13.3956 C.2     1  UNL1        0.2506
      2 O          63.8634   88.6189   12.0820 O.2     1  UNL1       -0.2699
      3 N          63.5301   88.6991   14.6573 N.am    1  UNL1       -0.2723
      4 C          63.3842   87.9899   15.9710 C.3     1  UNL1        0.1257
      5 C          63.1968   88.7793   17.2326 C.3     1  UNL1        0.1637
      6 O          63.1553   90.2778   17.1806 O.3     1  UNL1       -0.3502
      7 C          63.3012   90.9870   15.8670 C.3     1  UNL1        0.1622
      8 C          63.4886   90.1976   14.6052 C.3     1  UNL1        0.1097
      9 C          63.8835   81.9157   13.6037 C.3     1  UNL1        0.0307
     10 C          63.8420   83.4142   13.5517 C.ar    1  UNL1       -0.0243
     11 C          64.6177   84.2211   14.5503 C.ar    1  UNL1       -0.0043
     12 C          64.5762   85.7196   14.4983 C.ar    1  UNL1        0.0057
     13 C          63.7590   86.4112   13.4476 C.ar    1  UNL1        0.0726
     14 C          62.9834   85.6044   12.4490 C.ar    1  UNL1        0.1029
     15 C          63.0249   84.1058   12.5011 C.ar    1  UNL1       -0.0062
     16 C          62.2492   83.2990   11.5024 C.3     1  UNL1        0.0323
     17 N          62.1662   86.2960   11.3983 N.ar    1  UNL1       -0.1480
     18 N          60.8931   87.0549   11.6293 N.ar    1  UNL1       -0.1447
     19 C          60.4187   87.5781   10.3060 C.ar    1  UNL1        0.1446
     20 C          61.3986   87.1425    9.2571 C.ar    1  UNL1        0.1446
     21 N          62.4786   86.3502    9.9322 N.ar    1  UNL1       -0.1447
     22 C          63.6345   90.9068   13.2916 C.3     1  UNL1        0.0510
     23 C          64.9115   91.6221   12.9632 C.ar    1  UNL1        0.0086
     24 C          64.9404   92.6359   11.8581 C.ar    1  UNL1        0.0189
     25 C          66.2173   93.3512   11.5297 C.ar    1  UNL1        0.1027
     26 C          67.4653   93.0526   12.3063 C.ar    1  UNL1        0.0232
     27 C          67.4364   92.0387   13.4114 C.ar    1  UNL1        0.0309
     28 C          66.1595   91.3234   13.7398 C.ar    1  UNL1        0.1363
     29 F          66.1307   90.3095   14.8449 F       1  UNL1       -0.2045
     30 N          66.2462   94.3651   10.4246 N.ar    1  UNL1       -0.1478
     31 N          65.4834   95.6563   10.3926 N.ar    1  UNL1       -0.1447
     32 C          65.8086   96.3551    9.1057 C.ar    1  UNL1        0.1446
     33 C          66.7724   95.4957    8.3424 C.ar    1  UNL1        0.1446
     34 N          67.0428   94.2659    9.1575 N.ar    1  UNL1       -0.1447
@<TRIPOS>BOND
     1     9    10    1
     2    10    11   ar
     3    11    12   ar
     4    12    13   ar
     5    13     1    1
     6     1     2    2
     7     1     3   am
     8     3     4    1
     9     4     5    1
    10     5     6    1
    11     6     7    1
    12     7     8    1
    13     8    22    1
    14    22    23    1
    15    23    24   ar
    16    24    25   ar
    17    25    30    1
    18    30    31   ar
    19    31    32   ar
    20    32    33   ar
    21    33    34   ar
    22    25    26   ar
    23    26    27   ar
    24    27    28   ar
    25    28    29    1
    26    13    14   ar
    27    14    17    1
    28    17    18   ar
    29    18    19   ar
    30    19    20   ar
    31    20    21   ar
    32    14    15   ar
    33    15    16    1
    34    15    10   ar
    35     8     3    1
    36    28    23   ar
    37    21    17   ar
    38    34    30   ar
