@<TRIPOS>MOLECULE
*****
 49 55 0 0 0
SMALL
GASTEIGER

@<TRIPOS>ATOM
      1 C          59.3910   88.9918    7.4499 C.3     1  UNL1        0.1543
      2 O          59.4668   88.8626   10.4462 O.2     1  UNL1       -0.2526
      3 C          60.5626   89.5618    9.6977 C.2     1  UNL1        0.3043
      4 N          60.5247   89.6264    8.1996 N.am    1  UNL1       -0.2822
      5 N          61.6963   90.1964   10.4473 N.am    1  UNL1       -0.2641
      6 C          61.7342   90.1318   11.9454 C.3     1  UNL1        0.0966
      7 C          62.8680   90.7664   12.6951 C.3     1  UNL1        0.0415
      8 C          63.9638   91.4656   11.9465 C.3     1  UNL1        0.0806
      9 C          63.9259   91.5302   10.4484 C.3     1  UNL1        0.0415
     10 C          62.7922   90.8956    9.6988 C.3     1  UNL1        0.0966
     11 H          61.2440   90.0853    7.7083 H       1  UNL1        0.1514
     12 N          65.0975   92.1002   12.6962 N.am    1  UNL1       -0.2613
     13 C          65.6294   91.4529   13.9404 C.3     1  UNL1        0.1228
     14 C          66.7632   92.0876   14.6900 C.ar    1  UNL1        0.0112
     15 C          67.2951   91.4403   15.9343 C.ar    1  UNL1       -0.0014
     16 C          68.4288   92.0749   16.6839 C.ar    1  UNL1       -0.0002
     17 C          69.0307   93.3568   16.1893 C.ar    1  UNL1        0.0013
     18 C          68.4987   94.0041   14.9450 C.ar    1  UNL1        0.0144
     19 C          67.3650   93.3694   14.1954 C.ar    1  UNL1        0.0492
     20 N          66.8331   94.0167   12.9512 N.am    1  UNL1       -0.2684
     21 C          65.6994   93.3821   12.2016 C.2     1  UNL1        0.3079
     22 O          65.1675   94.0293   10.9573 O.2     1  UNL1       -0.2522
     23 H          67.2281   94.8580   12.6265 H       1  UNL1        0.1564
     24 C          58.5334   89.8231    6.5425 C.2     1  UNL1        0.2439
     25 O          57.0402   89.7867    6.6807 O.2     1  UNL1       -0.2731
     26 N          59.1689   90.6908    5.4970 N.am    1  UNL1       -0.2781
     27 C          60.6620   90.7271    5.3588 C.3     1  UNL1        0.0948
     28 C          61.2976   91.5948    4.3132 C.3     1  UNL1        0.0375
     29 C          60.4400   92.4261    3.4058 C.3     1  UNL1        0.0609
     30 C          58.9468   92.3897    3.5440 C.3     1  UNL1        0.0375
     31 C          58.3112   91.5220    4.5895 C.3     1  UNL1        0.0948
     32 N          61.0755   93.2938    2.3602 N.3     1  UNL1       -0.2738
     33 C          60.4305   94.5899    1.9679 C.3     1  UNL1        0.0720
     34 C          61.0660   95.4576    0.9223 C.3     1  UNL1        0.0174
     35 C          62.3465   95.0292    0.2690 C.3     1  UNL1        0.0029
     36 C          62.9915   93.7329    0.6614 C.3     1  UNL1        0.0174
     37 C          62.3560   92.8653    1.7070 C.3     1  UNL1        0.0720
     38 C          59.1149   87.5258    7.6077 C.3     1  UNL1        0.0552
     39 C          60.2366   86.5810    7.9221 C.2     1  UNL1       -0.0197
     40 C          60.9237   85.8376    6.8151 C.2     1  UNL1       -0.0085
     41 C          62.0454   84.8927    7.1295 C.3     1  UNL1        0.1421
     42 CL         62.7325   84.1494    6.0225 Cl      1  UNL1       -0.1038
     43 C          62.4802   84.6912    8.5509 C.2     1  UNL1        0.1078
     44 N          63.5471   83.8319    9.1619 N.am    1  UNL1       -0.1418
     45 C          63.5195   84.0442   10.6466 C.2     1  UNL1        0.4298
     46 O          64.4182   83.3823   11.6487 O.2     1  UNL1       -0.2238
     47 O          62.4355   85.0347   10.9531 O.3     1  UNL1       -0.4078
     48 C          61.7931   85.4345    9.6579 C.2     1  UNL1        0.1625
     49 C          60.6714   86.3794    9.3435 C.2     1  UNL1        0.0343
@<TRIPOS>BOND
     1     2     3    2
     2     3     4   am
     3     4     1    1
     4     1    38    1
     5    38    39    1
     6    39    40    2
     7    40    41    1
     8    41    42    1
     9    41    43    1
    10    43    44    2
    11    44    45    1
    12    45    46    2
    13    45    47    1
    14    47    48    1
    15    48    49    2
    16     1    24    1
    17    24    25    2
    18    24    26   am
    19    26    27    1
    20    27    28    1
    21    28    29    1
    22    29    32    1
    23    32    33    1
    24    33    34    1
    25    34    35    1
    26    35    36    1
    27    36    37    1
    28    29    30    1
    29    30    31    1
    30     3     5   am
    31     5     6    1
    32     6     7    1
    33     7     8    1
    34     8    12    1
    35    12    13    1
    36    13    14    1
    37    14    15   ar
    38    15    16   ar
    39    16    17   ar
    40    17    18   ar
    41    18    19   ar
    42    19    20    1
    43    20    21   am
    44    21    22    2
    45     8     9    1
    46     9    10    1
    47    49    39    1
    48    31    26    1
    49    10     5    1
    50    48    43    1
    51    37    32    1
    52    21    12   am
    53    19    14   ar
    54     4    11    1
    55    20    23    1
@<TRIPOS>MOLECULE
*****
 49 55 0 0 0
SMALL
GASTEIGER

@<TRIPOS>ATOM
      1 C          60.6740   88.0923    8.8340 C.3     1  UNL1        0.1543
      2 O          58.1607   89.0328    7.4928 O.2     1  UNL1       -0.2526
      3 C          59.4971   89.4856    6.9838 C.2     1  UNL1        0.3043
      4 N          60.7537   89.0154    7.6544 N.am    1  UNL1       -0.2822
      5 N          59.5768   90.4087    5.8042 N.am    1  UNL1       -0.2641
      6 C          58.3201   90.8790    5.1336 C.3     1  UNL1        0.0966
      7 C          58.3999   91.8022    3.9540 C.3     1  UNL1        0.0415
      8 C          59.7362   92.2550    3.4450 C.3     1  UNL1        0.0806
      9 C          60.9928   91.7847    4.1156 C.3     1  UNL1        0.0415
     10 C          60.9131   90.8616    5.2952 C.3     1  UNL1        0.0966
     11 H          61.6308   89.3126    7.3203 H       1  UNL1        0.1514
     12 N          59.8159   93.1781    2.2654 N.am    1  UNL1       -0.2613
     13 C          59.8134   92.6186    0.8736 C.3     1  UNL1        0.1228
     14 C          59.8931   93.5418   -0.3060 C.ar    1  UNL1        0.0112
     15 C          59.8906   92.9823   -1.6977 C.ar    1  UNL1       -0.0014
     16 C          59.9703   93.9054   -2.8773 C.ar    1  UNL1       -0.0002
     17 C          60.0525   95.3881   -2.6652 C.ar    1  UNL1        0.0013
     18 C          60.0550   95.9476   -1.2735 C.ar    1  UNL1        0.0144
     19 C          59.9753   95.0244   -0.0939 C.ar    1  UNL1        0.0492
     20 N          59.9778   95.5839    1.2979 N.am    1  UNL1       -0.2684
     21 C          59.8981   94.6608    2.4775 C.2     1  UNL1        0.3079
     22 O          59.9006   95.2203    3.8692 O.2     1  UNL1       -0.2522
     23 H          60.0318   96.5570    1.4371 H       1  UNL1        0.1564
     24 C          60.4360   88.6482   10.2067 C.2     1  UNL1        0.2439
     25 O          59.1301   88.3983   10.9011 O.2     1  UNL1       -0.2731
     26 N          61.5039   89.4541   10.8850 N.am    1  UNL1       -0.2781
     27 C          62.8098   89.7040   10.1906 C.3     1  UNL1        0.0948
     28 C          63.8778   90.5098   10.8689 C.3     1  UNL1        0.0375
     29 C          63.6398   91.0658   12.2416 C.3     1  UNL1        0.0609
     30 C          62.3339   90.8158   12.9360 C.3     1  UNL1        0.0375
     31 C          61.2660   90.0100   12.2577 C.3     1  UNL1        0.0948
     32 N          64.7077   91.8716   12.9199 N.3     1  UNL1       -0.2738
     33 C          65.4171   92.9593   12.1692 C.3     1  UNL1        0.0720
     34 C          66.4851   93.7653   12.8475 C.3     1  UNL1        0.0174
     35 C          66.8436   93.4834   14.2765 C.3     1  UNL1        0.0029
     36 C          66.1341   92.3956   15.0272 C.3     1  UNL1        0.0174
     37 C          65.0662   91.5898   14.3489 C.3     1  UNL1        0.0720
     38 C          60.8323   86.6131    8.6409 C.3     1  UNL1        0.0552
     39 C          61.6429   85.8120    9.6161 C.2     1  UNL1       -0.0197
     40 C          62.6774   84.8472    9.1172 C.2     1  UNL1       -0.0085
     41 C          63.4881   84.0461   10.0924 C.3     1  UNL1        0.1421
     42 CL         64.5227   83.0813    9.5935 Cl      1  UNL1       -0.1038
     43 C          63.2641   84.2096   11.5666 C.2     1  UNL1        0.1078
     44 N          63.9059   83.5614   12.7573 N.am    1  UNL1       -0.1418
     45 C          63.2680   84.1255   13.9922 C.2     1  UNL1        0.4298
     46 O          63.6067   83.7574   15.4063 O.2     1  UNL1       -0.2238
     47 O          62.2320   85.1224   13.5646 O.3     1  UNL1       -0.4078
     48 C          62.2295   85.1744   12.0655 C.2     1  UNL1        0.1625
     49 C          61.4189   85.9755   11.0903 C.2     1  UNL1        0.0343
@<TRIPOS>BOND
     1     2     3    2
     2     3     4   am
     3     4     1    1
     4     1    38    1
     5    38    39    1
     6    39    40    2
     7    40    41    1
     8    41    42    1
     9    41    43    1
    10    43    44    2
    11    44    45    1
    12    45    46    2
    13    45    47    1
    14    47    48    1
    15    48    49    2
    16     1    24    1
    17    24    25    2
    18    24    26   am
    19    26    27    1
    20    27    28    1
    21    28    29    1
    22    29    32    1
    23    32    33    1
    24    33    34    1
    25    34    35    1
    26    35    36    1
    27    36    37    1
    28    29    30    1
    29    30    31    1
    30     3     5   am
    31     5     6    1
    32     6     7    1
    33     7     8    1
    34     8    12    1
    35    12    13    1
    36    13    14    1
    37    14    15   ar
    38    15    16   ar
    39    16    17   ar
    40    17    18   ar
    41    18    19   ar
    42    19    20    1
    43    20    21   am
    44    21    22    2
    45     8     9    1
    46     9    10    1
    47    49    39    1
    48    31    26    1
    49    10     5    1
    50    48    43    1
    51    37    32    1
    52    21    12   am
    53    19    14   ar
    54     4    11    1
    55    20    23    1
@<TRIPOS>MOLECULE
*****
 49 55 0 0 0
SMALL
GASTEIGER

@<TRIPOS>ATOM
      1 C          60.2408   89.1516    8.1137 C.3     1  UNL1        0.1543
      2 O          58.0896   90.3373    6.3915 O.2     1  UNL1       -0.2526
      3 C          59.5321   90.5287    6.0278 C.2     1  UNL1        0.3043
      4 N          60.6077   89.9359    6.8889 N.am    1  UNL1       -0.2822
      5 N          59.8991   91.3130    4.8029 N.am    1  UNL1       -0.2641
      6 C          58.8234   91.9058    3.9418 C.3     1  UNL1        0.0966
      7 C          59.1904   92.6901    2.7169 C.3     1  UNL1        0.0415
      8 C          60.6330   92.8815    2.3532 C.3     1  UNL1        0.0806
      9 C          61.7086   92.2886    3.2143 C.3     1  UNL1        0.0415
     10 C          61.3417   91.5044    4.4392 C.3     1  UNL1        0.0966
     11 H          61.5546   90.0615    6.6502 H       1  UNL1        0.1514
     12 N          60.9999   93.6657    1.1284 N.am    1  UNL1       -0.2613
     13 C          61.6476   92.9777   -0.0366 C.3     1  UNL1        0.1228
     14 C          62.0146   93.7621   -1.2615 C.ar    1  UNL1        0.0112
     15 C          62.6623   93.0741   -2.4264 C.ar    1  UNL1       -0.0014
     16 C          63.0292   93.8583   -3.6513 C.ar    1  UNL1       -0.0002
     17 C          62.7484   95.3307   -3.7112 C.ar    1  UNL1        0.0013
     18 C          62.1007   96.0186   -2.5462 C.ar    1  UNL1        0.0144
     19 C          61.7338   95.2343   -1.3214 C.ar    1  UNL1        0.0492
     20 N          61.0861   95.9223   -0.1564 N.am    1  UNL1       -0.2684
     21 C          60.7191   95.1381    1.0684 C.2     1  UNL1        0.3079
     22 O          60.0714   95.8261    2.2334 O.2     1  UNL1       -0.2522
     23 H          60.9018   96.8886   -0.1957 H       1  UNL1        0.1564
     24 C          60.2041   87.6530    8.0617 C.2     1  UNL1        0.2439
     25 O          59.4092   86.9588    6.9956 O.2     1  UNL1       -0.2731
     26 N          60.9621   86.8485    9.0756 N.am    1  UNL1       -0.2781
     27 C          61.7569   87.5426   10.1416 C.3     1  UNL1        0.0948
     28 C          62.5150   86.7382   11.1556 C.3     1  UNL1        0.0375
     29 C          62.4783   85.2395   11.1035 C.3     1  UNL1        0.0609
     30 C          61.6835   84.5454   10.0374 C.3     1  UNL1        0.0375
     31 C          60.9254   85.3498    9.0235 C.3     1  UNL1        0.0948
     32 N          63.2364   84.4350   12.1175 N.3     1  UNL1       -0.2738
     33 C          63.6444   85.0606   13.4182 C.3     1  UNL1        0.0720
     34 C          64.4025   84.2561   14.4322 C.3     1  UNL1        0.0174
     35 C          64.7525   82.8260   14.1454 C.3     1  UNL1        0.0029
     36 C          64.3444   82.2004   12.8445 C.3     1  UNL1        0.0174
     37 C          63.5864   83.0049   11.8306 C.3     1  UNL1        0.0720
     38 C          59.9106   89.8660    9.3907 C.3     1  UNL1        0.0552
     39 C          61.0002   90.2034   10.3648 C.2     1  UNL1       -0.0197
     40 C          62.2219   90.9384    9.8986 C.2     1  UNL1       -0.0085
     41 C          63.3115   91.2758   10.8727 C.3     1  UNL1        0.1421
     42 CL         64.5332   92.0108   10.4065 Cl      1  UNL1       -0.1038
     43 C          63.1796   90.8781   12.3129 C.2     1  UNL1        0.1078
     44 N          64.0829   91.0721   13.4946 N.am    1  UNL1       -0.1418
     45 C          63.4196   90.4570   14.6911 C.2     1  UNL1        0.4298
     46 O          63.9726   90.4222   16.0851 O.2     1  UNL1       -0.2238
     47 O          62.1063   89.8828   14.2490 O.3     1  UNL1       -0.4078
     48 C          61.9579   90.1431   12.7792 C.2     1  UNL1        0.1625
     49 C          60.8683   89.8057   11.8051 C.2     1  UNL1        0.0343
@<TRIPOS>BOND
     1     2     3    2
     2     3     4   am
     3     4     1    1
     4     1    38    1
     5    38    39    1
     6    39    40    2
     7    40    41    1
     8    41    42    1
     9    41    43    1
    10    43    44    2
    11    44    45    1
    12    45    46    2
    13    45    47    1
    14    47    48    1
    15    48    49    2
    16     1    24    1
    17    24    25    2
    18    24    26   am
    19    26    27    1
    20    27    28    1
    21    28    29    1
    22    29    32    1
    23    32    33    1
    24    33    34    1
    25    34    35    1
    26    35    36    1
    27    36    37    1
    28    29    30    1
    29    30    31    1
    30     3     5   am
    31     5     6    1
    32     6     7    1
    33     7     8    1
    34     8    12    1
    35    12    13    1
    36    13    14    1
    37    14    15   ar
    38    15    16   ar
    39    16    17   ar
    40    17    18   ar
    41    18    19   ar
    42    19    20    1
    43    20    21   am
    44    21    22    2
    45     8     9    1
    46     9    10    1
    47    49    39    1
    48    31    26    1
    49    10     5    1
    50    48    43    1
    51    37    32    1
    52    21    12   am
    53    19    14   ar
    54     4    11    1
    55    20    23    1
@<TRIPOS>MOLECULE
*****
 49 55 0 0 0
SMALL
GASTEIGER

@<TRIPOS>ATOM
      1 C          60.5069   89.2761    8.4362 C.3     1  UNL1        0.1543
      2 O          58.3222   90.4152    6.7246 O.2     1  UNL1       -0.2526
      3 C          59.7521   90.5200    6.2837 C.2     1  UNL1        0.3043
      4 N          60.8445   89.9504    7.1395 N.am    1  UNL1       -0.2822
      5 N          60.0897   91.1943    4.9871 N.am    1  UNL1       -0.2641
      6 C          58.9973   91.7639    4.1313 C.3     1  UNL1        0.0966
      7 C          59.3349   92.4382    2.8346 C.3     1  UNL1        0.0415
      8 C          60.7648   92.5430    2.3938 C.3     1  UNL1        0.0806
      9 C          61.8572   91.9734    3.2496 C.3     1  UNL1        0.0415
     10 C          61.5196   91.2991    4.5462 C.3     1  UNL1        0.0966
     11 H          61.7830   90.0192    6.8502 H       1  UNL1        0.1514
     12 N          61.1024   93.2173    1.0971 N.am    1  UNL1       -0.2613
     13 C          60.1901   93.0703   -0.0844 C.3     1  UNL1        0.1228
     14 C          60.5277   93.7447   -1.3811 C.ar    1  UNL1        0.0112
     15 C          59.6154   93.5977   -2.5627 C.ar    1  UNL1       -0.0014
     16 C          59.9529   94.2720   -3.8593 C.ar    1  UNL1       -0.0002
     17 C          61.2028   95.0934   -3.9744 C.ar    1  UNL1        0.0013
     18 C          62.1151   95.2404   -2.7929 C.ar    1  UNL1        0.0144
     19 C          61.7775   94.5660   -1.4962 C.ar    1  UNL1        0.0492
     20 N          62.6898   94.7130   -0.3146 N.am    1  UNL1       -0.2684
     21 C          62.3523   94.0387    0.9820 C.2     1  UNL1        0.3079
     22 O          63.2646   94.1857    2.1636 O.2     1  UNL1       -0.2522
     23 H          63.5101   95.2521   -0.3901 H       1  UNL1        0.1564
     24 C          60.3571   87.7845    8.4891 C.2     1  UNL1        0.2439
     25 O          59.4939   87.0813    7.4839 O.2     1  UNL1       -0.2731
     26 N          61.0705   86.9962    9.5472 N.am    1  UNL1       -0.2781
     27 C          61.9337   87.6995   10.5523 C.3     1  UNL1        0.0948
     28 C          62.6471   86.9111   11.6105 C.3     1  UNL1        0.0375
     29 C          62.4973   85.4196   11.6635 C.3     1  UNL1        0.0609
     30 C          61.6341   84.7163   10.6582 C.3     1  UNL1        0.0375
     31 C          60.9207   85.5047    9.6001 C.3     1  UNL1        0.0948
     32 N          63.2107   84.6312   12.7215 N.3     1  UNL1       -0.2738
     33 C          63.9333   85.3421   13.8271 C.3     1  UNL1        0.0720
     34 C          64.6467   84.5538   14.8853 C.3     1  UNL1        0.0174
     35 C          64.6375   83.0546   14.8378 C.3     1  UNL1        0.0029
     36 C          63.9148   82.3437   13.7321 C.3     1  UNL1        0.0174
     37 C          63.2014   83.1320   12.6740 C.3     1  UNL1        0.0720
     38 C          60.3192   90.0934    9.6800 C.3     1  UNL1        0.0552
     39 C          61.5084   90.4893   10.5039 C.2     1  UNL1       -0.0197
     40 C          61.5795   90.1042   11.9518 C.2     1  UNL1       -0.0085
     41 C          62.7688   90.5001   12.7757 C.3     1  UNL1        0.1421
     42 CL         62.8399   90.1150   14.2237 Cl      1  UNL1       -0.1038
     43 C          63.8870   91.2812   12.1516 C.2     1  UNL1        0.1078
     44 N          65.1760   91.8086   12.7088 N.am    1  UNL1       -0.1418
     45 C          65.9016   92.5196   11.6052 C.2     1  UNL1        0.4298
     46 O          67.2339   93.1992   11.7206 O.2     1  UNL1       -0.2238
     47 O          65.0610   92.4317   10.3660 O.3     1  UNL1       -0.4078
     48 C          63.8160   91.6664   10.7037 C.2     1  UNL1        0.1625
     49 C          62.6267   91.2704    9.8798 C.2     1  UNL1        0.0343
@<TRIPOS>BOND
     1     2     3    2
     2     3     4   am
     3     4     1    1
     4     1    38    1
     5    38    39    1
     6    39    40    2
     7    40    41    1
     8    41    42    1
     9    41    43    1
    10    43    44    2
    11    44    45    1
    12    45    46    2
    13    45    47    1
    14    47    48    1
    15    48    49    2
    16     1    24    1
    17    24    25    2
    18    24    26   am
    19    26    27    1
    20    27    28    1
    21    28    29    1
    22    29    32    1
    23    32    33    1
    24    33    34    1
    25    34    35    1
    26    35    36    1
    27    36    37    1
    28    29    30    1
    29    30    31    1
    30     3     5   am
    31     5     6    1
    32     6     7    1
    33     7     8    1
    34     8    12    1
    35    12    13    1
    36    13    14    1
    37    14    15   ar
    38    15    16   ar
    39    16    17   ar
    40    17    18   ar
    41    18    19   ar
    42    19    20    1
    43    20    21   am
    44    21    22    2
    45     8     9    1
    46     9    10    1
    47    49    39    1
    48    31    26    1
    49    10     5    1
    50    48    43    1
    51    37    32    1
    52    21    12   am
    53    19    14   ar
    54     4    11    1
    55    20    23    1
@<TRIPOS>MOLECULE
*****
 49 55 0 0 0
SMALL
GASTEIGER

@<TRIPOS>ATOM
      1 C          60.6457   87.8991    8.6244 C.3     1  UNL1        0.1543
      2 O          58.3586   89.4110    7.4065 O.2     1  UNL1       -0.2526
      3 C          59.7393   89.5533    6.8378 C.2     1  UNL1        0.3043
      4 N          60.8828   88.7974    7.4468 N.am    1  UNL1       -0.2822
      5 N          59.9764   90.4516    5.6602 N.am    1  UNL1       -0.2641
      6 C          58.8328   91.2076    5.0513 C.3     1  UNL1        0.0966
      7 C          59.0700   92.1059    3.8736 C.3     1  UNL1        0.0415
      8 C          60.4507   92.2482    3.3049 C.3     1  UNL1        0.0806
      9 C          61.5942   91.4922    3.9139 C.3     1  UNL1        0.0415
     10 C          61.3571   90.5939    5.0915 C.3     1  UNL1        0.0966
     11 H          61.7890   88.8908    7.0735 H       1  UNL1        0.1514
     12 N          60.6878   93.1465    2.1273 N.am    1  UNL1       -0.2613
     13 C          61.9841   93.8905    2.0005 C.3     1  UNL1        0.1228
     14 C          62.2212   94.7888    0.8228 C.ar    1  UNL1        0.0112
     15 C          63.5174   95.5328    0.6961 C.ar    1  UNL1       -0.0014
     16 C          63.7546   96.4311   -0.4816 C.ar    1  UNL1       -0.0002
     17 C          62.6954   96.5854   -1.5325 C.ar    1  UNL1        0.0013
     18 C          61.3991   95.8414   -1.4057 C.ar    1  UNL1        0.0144
     19 C          61.1620   94.9431   -0.2280 C.ar    1  UNL1        0.0492
     20 N          59.8657   94.1991   -0.1012 N.am    1  UNL1       -0.2684
     21 C          59.6286   93.3008    1.0764 C.2     1  UNL1        0.3079
     22 O          58.3323   92.5568    1.2032 O.2     1  UNL1       -0.2522
     23 H          59.1705   94.3003   -0.7909 H       1  UNL1        0.1564
     24 C          60.2381   88.4843    9.9440 C.2     1  UNL1        0.2439
     25 O          58.8115   88.3894   10.3979 O.2     1  UNL1       -0.2731
     26 N          61.2569   89.1643   10.8097 N.am    1  UNL1       -0.2781
     27 C          62.6834   89.2591   10.3558 C.3     1  UNL1        0.0948
     28 C          63.7024   89.9391   11.2215 C.3     1  UNL1        0.0375
     29 C          63.2947   90.5243   12.5411 C.3     1  UNL1        0.0609
     30 C          61.8681   90.4295   12.9950 C.3     1  UNL1        0.0375
     31 C          60.8493   89.7494   12.1293 C.3     1  UNL1        0.0948
     32 N          64.3136   91.2043   13.4068 N.3     1  UNL1       -0.2738
     33 C          64.1380   91.2254   14.8963 C.3     1  UNL1        0.0720
     34 C          65.1569   91.9055   15.7621 C.3     1  UNL1        0.0174
     35 C          66.3513   92.5643   15.1383 C.3     1  UNL1        0.0029
     36 C          66.5269   92.5432   13.6487 C.3     1  UNL1        0.0174
     37 C          65.5081   91.8632   12.7830 C.3     1  UNL1        0.0720
     38 C          60.8162   86.4155    8.4824 C.3     1  UNL1        0.0552
     39 C          61.6547   85.6591    9.4696 C.2     1  UNL1       -0.0197
     40 C          62.7287   84.7306    8.9855 C.2     1  UNL1       -0.0085
     41 C          63.5673   83.9741    9.9728 C.3     1  UNL1        0.1421
     42 CL         64.6413   83.0456    9.4887 Cl      1  UNL1       -0.1038
     43 C          63.3318   84.1462   11.4442 C.2     1  UNL1        0.1078
     44 N          63.9948   83.5384   12.6446 N.am    1  UNL1       -0.1418
     45 C          63.3307   84.0913   13.8706 C.2     1  UNL1        0.4298
     46 O          63.6789   83.7540   15.2901 O.2     1  UNL1       -0.2238
     47 O          62.2571   85.0408   13.4279 O.3     1  UNL1       -0.4078
     48 C          62.2578   85.0748   11.9283 C.2     1  UNL1        0.1625
     49 C          61.4193   85.8312   10.9411 C.2     1  UNL1        0.0343
@<TRIPOS>BOND
     1     2     3    2
     2     3     4   am
     3     4     1    1
     4     1    38    1
     5    38    39    1
     6    39    40    2
     7    40    41    1
     8    41    42    1
     9    41    43    1
    10    43    44    2
    11    44    45    1
    12    45    46    2
    13    45    47    1
    14    47    48    1
    15    48    49    2
    16     1    24    1
    17    24    25    2
    18    24    26   am
    19    26    27    1
    20    27    28    1
    21    28    29    1
    22    29    32    1
    23    32    33    1
    24    33    34    1
    25    34    35    1
    26    35    36    1
    27    36    37    1
    28    29    30    1
    29    30    31    1
    30     3     5   am
    31     5     6    1
    32     6     7    1
    33     7     8    1
    34     8    12    1
    35    12    13    1
    36    13    14    1
    37    14    15   ar
    38    15    16   ar
    39    16    17   ar
    40    17    18   ar
    41    18    19   ar
    42    19    20    1
    43    20    21   am
    44    21    22    2
    45     8     9    1
    46     9    10    1
    47    49    39    1
    48    31    26    1
    49    10     5    1
    50    48    43    1
    51    37    32    1
    52    21    12   am
    53    19    14   ar
    54     4    11    1
    55    20    23    1
