@<TRIPOS>MOLECULE
*****
 36 41 0 0 0
SMALL
GASTEIGER

@<TRIPOS>ATOM
      1 C          60.6623   88.7716    9.8864 C.3     1  UNL1        0.1455
      2 C          59.9239   89.5914    8.8701 C.3     1  UNL1        0.1634
      3 O          59.4751   88.9643    7.5835 O.3     1  UNL1       -0.3507
      4 C          59.7646   87.5176    7.3132 C.3     1  UNL1        0.1598
      5 C          60.5030   86.6978    8.3295 C.3     1  UNL1        0.1093
      6 N          60.9518   87.3249    9.6161 N.3     1  UNL1       -0.1499
      7 C          61.1110   89.3987   11.1730 C.3     1  UNL1        0.1550
      8 C          59.7848   89.5837   11.8490 C.3     1  UNL1        0.0453
      9 C          61.0451   90.0144   12.5393 C.3     1  UNL1        0.0453
     10 O          62.5930   89.4315   10.9439 O.3     1  UNL1       -0.4403
     11 O          63.0932   91.5360    9.5049 O.2     1  UNL1       -0.2262
     12 C          63.2952   90.7446   10.7630 C.2     1  UNL1        0.4047
     13 N          64.1992   91.2663   11.8402 N.am    1  UNL1       -0.2459
     14 C          64.9014   92.5794   11.6594 C.3     1  UNL1        0.0981
     15 C          65.8055   93.1012   12.7365 C.3     1  UNL1        0.0361
     16 C          66.0074   92.3098   13.9947 C.3     1  UNL1        0.0465
     17 C          66.8509   93.5378   14.1689 C.3     1  UNL1        0.0316
     18 C          67.2860   93.0476   15.5182 C.3     1  UNL1        0.0698
     19 N          66.4425   91.8195   15.3439 N.3     1  UNL1       -0.2994
     20 C          65.3053   90.9967   14.1756 C.3     1  UNL1        0.0361
     21 C          64.4012   90.4749   13.0984 C.3     1  UNL1        0.0981
     22 H          65.6842   91.7357   16.0209 H       1  UNL1        0.1232
     23 S          61.6902   86.5051   10.6325 S.O2    1  UNL1        0.0635
     24 O          62.8663   86.4158    9.7058 O.2     1  UNL1       -0.1528
     25 O          60.8238   86.4047   11.6630 O.2     1  UNL1       -0.1528
     26 C          62.4285   85.6855   11.6488 C.ar    1  UNL1        0.1223
     27 C          63.1286   86.3600   12.7911 C.ar    1  UNL1        0.0208
     28 C          63.8670   85.5403   13.8074 C.ar    1  UNL1        0.0128
     29 C          63.9053   84.0461   13.6814 C.ar    1  UNL1        0.0578
     30 CL         64.6437   83.2265   14.6977 Cl      1  UNL1       -0.0822
     31 C          63.2053   83.3716   12.5391 C.ar    1  UNL1        0.0128
     32 C          62.4669   84.1912   11.5228 C.ar    1  UNL1        0.0208
     33 C          60.7925   85.2511    8.0592 C.3     1  UNL1        0.0203
     34 C          61.5835   84.8583    6.8467 C.3     1  UNL1        0.0015
     35 C          61.6441   84.2559    5.4743 C.3     1  UNL1        0.0000
     36 C          62.8928   84.7803    6.1191 C.3     1  UNL1        0.0000
@<TRIPOS>BOND
     1    11    12    2
     2    12    10    1
     3    10     7    1
     4     1     7    1
     5     1     2    1
     6     2     3    1
     7     3     4    1
     8     4     5    1
     9     5    33    1
    10    33    34    1
    11    34    35    1
    12    35    36    1
    13     5     6    1
    14     6    23    1
    15    23    24    2
    16    23    25    2
    17    23    26    1
    18    26    27   ar
    19    27    28   ar
    20    28    29   ar
    21    29    30    1
    22    29    31   ar
    23    31    32   ar
    24     7     8    1
    25     8     9    1
    26    12    13   am
    27    13    14    1
    28    14    15    1
    29    15    16    1
    30    16    17    1
    31    17    18    1
    32    18    19    1
    33    16    20    1
    34    20    21    1
    35     9     7    1
    36    21    13    1
    37     6     1    1
    38    32    26   ar
    39    19    16    1
    40    36    34    1
    41    19    22    1
@<TRIPOS>MOLECULE
*****
 36 41 0 0 0
SMALL
GASTEIGER

@<TRIPOS>ATOM
      1 C          63.1225   90.5247   11.5517 C.3     1  UNL1        0.1455
      2 C          63.3491   91.3826   10.3422 C.3     1  UNL1        0.1634
      3 O          64.4649   92.3849   10.3322 O.3     1  UNL1       -0.3507
      4 C          65.3542   92.5295   11.5315 C.3     1  UNL1        0.1598
      5 C          65.1276   91.6716   12.7409 C.3     1  UNL1        0.1093
      6 N          64.0118   90.6692   12.7510 N.3     1  UNL1       -0.1499
      7 C          62.0067   89.5223   11.5618 C.3     1  UNL1        0.1550
      8 C          60.8344   90.4356   11.3571 C.3     1  UNL1        0.0453
      9 C          60.6182   88.9580   11.4995 C.3     1  UNL1        0.0453
     10 O          62.7913   88.2610   11.7699 O.3     1  UNL1       -0.4403
     11 O          62.1279   87.2673    9.4629 O.2     1  UNL1       -0.2262
     12 C          62.5460   87.0712   10.8900 C.2     1  UNL1        0.4047
     13 N          62.7188   85.6854   11.4372 N.am    1  UNL1       -0.2459
     14 C          62.4735   84.4956   10.5573 C.3     1  UNL1        0.0981
     15 C          62.6463   83.1097   11.1045 C.3     1  UNL1        0.0361
     16 C          63.0644   82.9135   12.5317 C.3     1  UNL1        0.0465
     17 C          62.9157   81.5280   11.9768 C.3     1  UNL1        0.0316
     18 C          63.3088   80.9536   13.3056 C.3     1  UNL1        0.0698
     19 N          63.4574   82.3393   13.8605 N.3     1  UNL1       -0.2994
     20 C          63.3097   84.1033   13.4116 C.3     1  UNL1        0.0361
     21 C          63.1369   85.4892   12.8644 C.3     1  UNL1        0.0981
     22 H          64.4072   82.5722   14.1502 H       1  UNL1        0.1232
     23 S          63.7851   89.8113   13.9604 S.O2    1  UNL1        0.0635
     24 O          62.8474   90.8420   14.5158 O.2     1  UNL1       -0.1528
     25 O          64.5546   88.7245   13.7388 O.2     1  UNL1       -0.1528
     26 C          63.5584   88.9534   15.1698 C.ar    1  UNL1        0.1223
     27 C          63.0786   89.5724   16.4491 C.ar    1  UNL1        0.0208
     28 C          62.8519   88.7145   17.6585 C.ar    1  UNL1        0.0128
     29 C          63.1051   87.2377   17.5887 C.ar    1  UNL1        0.0578
     30 CL         62.8784   86.3799   18.7981 Cl      1  UNL1       -0.0822
     31 C          63.5849   86.6188   16.3094 C.ar    1  UNL1        0.0128
     32 C          63.8116   87.4766   15.0999 C.ar    1  UNL1        0.0208
     33 C          66.0168   91.8161   13.9402 C.3     1  UNL1        0.0203
     34 C          67.5024   91.9252   13.7637 C.3     1  UNL1        0.0015
     35 C          68.8438   92.3550   14.2793 C.3     1  UNL1        0.0000
     36 C          68.7341   91.6843   12.9421 C.3     1  UNL1        0.0000
@<TRIPOS>BOND
     1    11    12    2
     2    12    10    1
     3    10     7    1
     4     1     7    1
     5     1     2    1
     6     2     3    1
     7     3     4    1
     8     4     5    1
     9     5    33    1
    10    33    34    1
    11    34    35    1
    12    35    36    1
    13     5     6    1
    14     6    23    1
    15    23    24    2
    16    23    25    2
    17    23    26    1
    18    26    27   ar
    19    27    28   ar
    20    28    29   ar
    21    29    30    1
    22    29    31   ar
    23    31    32   ar
    24     7     8    1
    25     8     9    1
    26    12    13   am
    27    13    14    1
    28    14    15    1
    29    15    16    1
    30    16    17    1
    31    17    18    1
    32    18    19    1
    33    16    20    1
    34    20    21    1
    35     9     7    1
    36    21    13    1
    37     6     1    1
    38    32    26   ar
    39    19    16    1
    40    36    34    1
    41    19    22    1
@<TRIPOS>MOLECULE
*****
 36 41 0 0 0
SMALL
GASTEIGER

@<TRIPOS>ATOM
      1 C          60.6916   88.6029    9.9778 C.3     1  UNL1        0.1455
      2 C          59.9926   89.4549    8.9602 C.3     1  UNL1        0.1634
      3 O          59.6083   88.8734    7.6320 O.3     1  UNL1       -0.3507
      4 C          59.9230   87.4401    7.3213 C.3     1  UNL1        0.1598
      5 C          60.6221   86.5881    8.3389 C.3     1  UNL1        0.1093
      6 N          61.0063   87.1696    9.6671 N.3     1  UNL1       -0.1499
      7 C          61.0759   89.1843   11.3060 C.3     1  UNL1        0.1550
      8 C          59.7170   89.5143   11.8488 C.3     1  UNL1        0.0453
      9 C          60.9419   89.8103   12.6626 C.3     1  UNL1        0.0453
     10 O          62.5682   89.0563   11.2247 O.3     1  UNL1       -0.4403
     11 O          63.6003   89.0790   13.6088 O.2     1  UNL1       -0.2262
     12 C          63.4348   89.7116   12.2588 C.2     1  UNL1        0.4047
     13 N          64.1358   90.9996   11.9431 N.am    1  UNL1       -0.2459
     14 C          65.0024   91.6549   12.9773 C.3     1  UNL1        0.0981
     15 C          65.7034   92.9429   12.6616 C.3     1  UNL1        0.0361
     16 C          65.5379   93.5755   11.3117 C.3     1  UNL1        0.0465
     17 C          66.4549   94.4955   12.0617 C.3     1  UNL1        0.0316
     18 C          66.5293   95.3970   10.8651 C.3     1  UNL1        0.0698
     19 N          65.6122   94.4769   10.1150 N.3     1  UNL1       -0.2994
     20 C          64.6713   92.9202   10.2775 C.3     1  UNL1        0.0361
     21 C          63.9703   91.6322   10.5931 C.3     1  UNL1        0.0981
     22 H          66.0360   94.0449    9.2940 H       1  UNL1        0.1232
     23 S          61.7054   86.3176   10.6848 S.O2    1  UNL1        0.0635
     24 O          62.8607   86.1422    9.7443 O.2     1  UNL1       -0.1528
     25 O          60.8488   86.2853   11.7277 O.2     1  UNL1       -0.1528
     26 C          62.4045   85.4657   11.7024 C.ar    1  UNL1        0.1223
     27 C          63.0407   86.1013   12.9029 C.ar    1  UNL1        0.0208
     28 C          63.7398   85.2494   13.9205 C.ar    1  UNL1        0.0128
     29 C          63.8027   83.7620   13.7377 C.ar    1  UNL1        0.0578
     30 CL         64.5017   82.9101   14.7553 Cl      1  UNL1       -0.0822
     31 C          63.1664   83.1264   12.5372 C.ar    1  UNL1        0.0128
     32 C          62.4673   83.9782   11.5195 C.ar    1  UNL1        0.0208
     33 C          60.9368   85.1549    8.0283 C.3     1  UNL1        0.0203
     34 C          61.6503   84.8021    6.7568 C.3     1  UNL1        0.0015
     35 C          62.8810   84.8529    5.9008 C.3     1  UNL1        0.0000
     36 C          61.6553   84.1403    5.4108 C.3     1  UNL1        0.0000
@<TRIPOS>BOND
     1    11    12    2
     2    12    10    1
     3    10     7    1
     4     1     7    1
     5     1     2    1
     6     2     3    1
     7     3     4    1
     8     4     5    1
     9     5    33    1
    10    33    34    1
    11    34    35    1
    12    35    36    1
    13     5     6    1
    14     6    23    1
    15    23    24    2
    16    23    25    2
    17    23    26    1
    18    26    27   ar
    19    27    28   ar
    20    28    29   ar
    21    29    30    1
    22    29    31   ar
    23    31    32   ar
    24     7     8    1
    25     8     9    1
    26    12    13   am
    27    13    14    1
    28    14    15    1
    29    15    16    1
    30    16    17    1
    31    17    18    1
    32    18    19    1
    33    16    20    1
    34    20    21    1
    35     9     7    1
    36    21    13    1
    37     6     1    1
    38    32    26   ar
    39    19    16    1
    40    36    34    1
    41    19    22    1
@<TRIPOS>MOLECULE
*****
 36 41 0 0 0
SMALL
GASTEIGER

@<TRIPOS>ATOM
      1 C          64.3750   90.2988   14.7576 C.3     1  UNL1        0.1455
      2 C          65.3985   90.9763   15.6199 C.3     1  UNL1        0.1634
      3 O          66.3160   92.0045   15.0275 O.3     1  UNL1       -0.3507
      4 C          66.2100   92.3553   13.5730 C.3     1  UNL1        0.1598
      5 C          65.1865   91.6778   12.7107 C.3     1  UNL1        0.1093
      6 N          64.2690   90.6496   13.3031 N.3     1  UNL1       -0.1499
      7 C          63.4575   89.2705   15.3500 C.3     1  UNL1        0.1550
      8 C          62.4629   90.1673   16.0255 C.3     1  UNL1        0.0453
      9 C          62.3052   88.6777   16.1056 C.3     1  UNL1        0.0453
     10 O          64.1335   88.0166   14.8803 O.3     1  UNL1       -0.4403
     11 O          63.7864   86.6400   17.0561 O.2     1  UNL1       -0.2262
     12 C          63.8461   86.7101   15.5589 C.2     1  UNL1        0.4047
     13 N          63.6185   85.4739   14.7405 N.am    1  UNL1       -0.2459
     14 C          63.3311   84.1675   15.4191 C.3     1  UNL1        0.0981
     15 C          63.1035   82.9312   14.6008 C.3     1  UNL1        0.0361
     16 C          63.1633   83.0014   13.1036 C.3     1  UNL1        0.0465
     17 C          62.8606   81.5653   13.4131 C.3     1  UNL1        0.0316
     18 C          62.8414   81.2531   11.9460 C.3     1  UNL1        0.0698
     19 N          63.1441   82.6893   11.6365 N.3     1  UNL1       -0.2994
     20 C          63.4507   84.3078   12.4249 C.3     1  UNL1        0.0361
     21 C          63.6783   85.5441   13.2433 C.3     1  UNL1        0.0981
     22 H          62.4071   83.1680   11.1186 H       1  UNL1        0.1232
     23 S          63.2455   89.9720   12.4409 S.O2    1  UNL1        0.0635
     24 O          62.4002   91.2109   12.4709 O.2     1  UNL1       -0.1528
     25 O          63.7607   88.7427   12.2269 O.2     1  UNL1       -0.1528
     26 C          62.2219   89.2946   11.5787 C.ar    1  UNL1        0.1223
     27 C          62.3242   87.8226   11.3091 C.ar    1  UNL1        0.0208
     28 C          61.3007   87.1451   10.4469 C.ar    1  UNL1        0.0128
     29 C          60.1748   87.9396    9.8543 C.ar    1  UNL1        0.0578
     30 CL         59.1513   87.2621    8.9921 Cl      1  UNL1       -0.0822
     31 C          60.0726   89.4116   10.1239 C.ar    1  UNL1        0.0128
     32 C          61.0961   90.0891   10.9861 C.ar    1  UNL1        0.0208
     33 C          65.0805   92.0286   11.2563 C.3     1  UNL1        0.0203
     34 C          66.2713   92.5788   10.5286 C.3     1  UNL1        0.0015
     35 C          66.9336   93.6973    9.7803 C.3     1  UNL1        0.0000
     36 C          67.6714   92.4129   10.0168 C.3     1  UNL1        0.0000
@<TRIPOS>BOND
     1    11    12    2
     2    12    10    1
     3    10     7    1
     4     1     7    1
     5     1     2    1
     6     2     3    1
     7     3     4    1
     8     4     5    1
     9     5    33    1
    10    33    34    1
    11    34    35    1
    12    35    36    1
    13     5     6    1
    14     6    23    1
    15    23    24    2
    16    23    25    2
    17    23    26    1
    18    26    27   ar
    19    27    28   ar
    20    28    29   ar
    21    29    30    1
    22    29    31   ar
    23    31    32   ar
    24     7     8    1
    25     8     9    1
    26    12    13   am
    27    13    14    1
    28    14    15    1
    29    15    16    1
    30    16    17    1
    31    17    18    1
    32    18    19    1
    33    16    20    1
    34    20    21    1
    35     9     7    1
    36    21    13    1
    37     6     1    1
    38    32    26   ar
    39    19    16    1
    40    36    34    1
    41    19    22    1
@<TRIPOS>MOLECULE
*****
 36 41 0 0 0
SMALL
GASTEIGER

@<TRIPOS>ATOM
      1 C          63.7624   90.5208   14.0940 C.3     1  UNL1        0.1455
      2 C          63.0502   90.0221   15.3164 C.3     1  UNL1        0.1634
      3 O          63.3832   90.5922   16.6633 O.3     1  UNL1       -0.3507
      4 C          64.4283   91.6609   16.7879 C.3     1  UNL1        0.1598
      5 C          65.1404   92.1597   15.5655 C.3     1  UNL1        0.1093
      6 N          64.8075   91.5896   14.2186 N.3     1  UNL1       -0.1499
      7 C          63.4294   89.9507   12.7472 C.3     1  UNL1        0.1550
      8 C          63.0405   91.2051   12.0224 C.3     1  UNL1        0.0453
      9 C          63.0015   89.8850   11.3110 C.3     1  UNL1        0.0453
     10 O          63.7027   88.4984   13.0041 O.3     1  UNL1       -0.4403
     11 O          62.3147   87.8483   10.9062 O.2     1  UNL1       -0.2262
     12 C          63.0534   87.4504   12.1497 C.2     1  UNL1        0.4047
     13 N          63.1428   86.0045   12.5386 N.am    1  UNL1       -0.2459
     14 C          62.4935   84.9565   11.6842 C.3     1  UNL1        0.0981
     15 C          62.5828   83.5105   12.0731 C.3     1  UNL1        0.0361
     16 C          63.3215   83.1126   13.3165 C.3     1  UNL1        0.0465
     17 C          62.8181   81.8248   12.7351 C.3     1  UNL1        0.0316
     18 C          63.4479   81.0677   13.8666 C.3     1  UNL1        0.0698
     19 N          63.9513   82.3556   14.4480 N.3     1  UNL1       -0.2994
     20 C          63.9707   84.1606   14.1710 C.3     1  UNL1        0.0361
     21 C          63.8814   85.6065   13.7821 C.3     1  UNL1        0.0981
     22 H          64.9682   82.4277   14.4822 H       1  UNL1        0.1232
     23 S          65.5196   92.0883   12.9962 S.O2    1  UNL1        0.0635
     24 O          66.6045   91.0759   13.2153 O.2     1  UNL1       -0.1528
     25 O          64.7272   93.0810   12.5387 O.2     1  UNL1       -0.1528
     26 C          66.2317   92.5870   11.7738 C.ar    1  UNL1        0.1223
     27 C          67.4644   91.8856   11.2855 C.ar    1  UNL1        0.0208
     28 C          68.1766   92.3842   10.0632 C.ar    1  UNL1        0.0128
     29 C          67.6560   93.5842    9.3291 C.ar    1  UNL1        0.0578
     30 CL         68.3682   94.0829    8.1067 Cl      1  UNL1       -0.0822
     31 C          66.4233   94.2856    9.8174 C.ar    1  UNL1        0.0128
     32 C          65.7111   93.7870   11.0397 C.ar    1  UNL1        0.0208
     33 C          66.1854   93.2284   15.6900 C.3     1  UNL1        0.0203
     34 C          67.6305   92.8517   15.8313 C.3     1  UNL1        0.0015
     35 C          69.0690   93.0576   15.4597 C.3     1  UNL1        0.0000
     36 C          68.6947   91.9930   16.4479 C.3     1  UNL1        0.0000
@<TRIPOS>BOND
     1    11    12    2
     2    12    10    1
     3    10     7    1
     4     1     7    1
     5     1     2    1
     6     2     3    1
     7     3     4    1
     8     4     5    1
     9     5    33    1
    10    33    34    1
    11    34    35    1
    12    35    36    1
    13     5     6    1
    14     6    23    1
    15    23    24    2
    16    23    25    2
    17    23    26    1
    18    26    27   ar
    19    27    28   ar
    20    28    29   ar
    21    29    30    1
    22    29    31   ar
    23    31    32   ar
    24     7     8    1
    25     8     9    1
    26    12    13   am
    27    13    14    1
    28    14    15    1
    29    15    16    1
    30    16    17    1
    31    17    18    1
    32    18    19    1
    33    16    20    1
    34    20    21    1
    35     9     7    1
    36    21    13    1
    37     6     1    1
    38    32    26   ar
    39    19    16    1
    40    36    34    1
    41    19    22    1
@<TRIPOS>MOLECULE
*****
 36 41 0 0 0
SMALL
GASTEIGER

@<TRIPOS>ATOM
      1 C          62.3161   86.2623   10.6511 C.3     1  UNL1        0.1455
      2 C          62.3649   85.9851    9.1777 C.3     1  UNL1        0.1634
      3 O          63.1169   84.7935    8.6633 O.3     1  UNL1       -0.3507
      4 C          63.8201   83.8791    9.6222 C.3     1  UNL1        0.1598
      5 C          63.7712   84.1563   11.0956 C.3     1  UNL1        0.1093
      6 N          63.0192   85.3479   11.6100 N.3     1  UNL1       -0.1499
      7 C          61.5641   87.4538   11.1655 C.3     1  UNL1        0.1550
      8 C          60.1888   87.1315   10.6608 C.3     1  UNL1        0.0453
      9 C          60.4251   88.3898   11.4425 C.3     1  UNL1        0.0453
     10 O          62.6782   88.1900   11.8487 O.3     1  UNL1       -0.4403
     11 O          62.7022   89.9743    9.9603 O.2     1  UNL1       -0.2262
     12 C          63.1301   89.5209   11.3247 C.2     1  UNL1        0.4047
     13 N          64.0099   90.3983   12.1649 N.am    1  UNL1       -0.2459
     14 C          64.4619   91.7291   11.6408 C.3     1  UNL1        0.0981
     15 C          65.3417   92.6066   12.4810 C.3     1  UNL1        0.0361
     16 C          65.7696   92.1532   13.8453 C.3     1  UNL1        0.0465
     17 C          66.4015   93.5020   13.6685 C.3     1  UNL1        0.0316
     18 C          67.0139   93.3941   15.0336 C.3     1  UNL1        0.0698
     19 N          66.3819   92.0452   15.2104 N.3     1  UNL1       -0.2994
     20 C          65.3177   90.8224   14.3694 C.3     1  UNL1        0.0361
     21 C          64.4379   89.9449   13.5292 C.3     1  UNL1        0.0981
     22 H          65.7020   92.0001   15.9694 H       1  UNL1        0.1232
     23 S          62.9704   85.6251   13.0834 S.O2    1  UNL1        0.0635
     24 O          61.7244   84.7977   13.1977 O.2     1  UNL1       -0.1528
     25 O          64.0477   86.4081   13.3043 O.2     1  UNL1       -0.1528
     26 C          62.9214   85.9024   14.5567 C.ar    1  UNL1        0.1223
     27 C          63.4883   87.1811   15.0985 C.ar    1  UNL1        0.0208
     28 C          63.4393   87.4583   16.5718 C.ar    1  UNL1        0.0128
     29 C          62.8236   86.4569   17.5034 C.ar    1  UNL1        0.0578
     30 CL         62.7747   86.7341   18.9767 Cl      1  UNL1       -0.0822
     31 C          62.2568   85.1781   16.9616 C.ar    1  UNL1        0.0128
     32 C          62.3056   84.9008   15.4883 C.ar    1  UNL1        0.0208
     33 C          64.4743   83.2420   12.0545 C.3     1  UNL1        0.0203
     34 C          63.7681   82.0329   12.5927 C.3     1  UNL1        0.0015
     35 C          62.7659   80.9302   12.4211 C.3     1  UNL1        0.0000
     36 C          63.5476   81.0415   13.6965 C.3     1  UNL1        0.0000
@<TRIPOS>BOND
     1    11    12    2
     2    12    10    1
     3    10     7    1
     4     1     7    1
     5     1     2    1
     6     2     3    1
     7     3     4    1
     8     4     5    1
     9     5    33    1
    10    33    34    1
    11    34    35    1
    12    35    36    1
    13     5     6    1
    14     6    23    1
    15    23    24    2
    16    23    25    2
    17    23    26    1
    18    26    27   ar
    19    27    28   ar
    20    28    29   ar
    21    29    30    1
    22    29    31   ar
    23    31    32   ar
    24     7     8    1
    25     8     9    1
    26    12    13   am
    27    13    14    1
    28    14    15    1
    29    15    16    1
    30    16    17    1
    31    17    18    1
    32    18    19    1
    33    16    20    1
    34    20    21    1
    35     9     7    1
    36    21    13    1
    37     6     1    1
    38    32    26   ar
    39    19    16    1
    40    36    34    1
    41    19    22    1
@<TRIPOS>MOLECULE
*****
 36 41 0 0 0
SMALL
GASTEIGER

@<TRIPOS>ATOM
      1 C          59.9903   93.8443    0.2146 C.3     1  UNL1        0.1455
      2 C          59.2451   93.3113    1.4024 C.3     1  UNL1        0.1634
      3 O          59.9996   92.7499    2.5709 O.3     1  UNL1       -0.3507
      4 C          61.4992   92.7214    2.5517 C.3     1  UNL1        0.1598
      5 C          62.2444   93.2545    1.3640 C.3     1  UNL1        0.1093
      6 N          61.4898   93.8159    0.1955 N.3     1  UNL1       -0.1499
      7 C          59.2357   94.4058   -0.9539 C.3     1  UNL1        0.1550
      8 C          58.8682   95.7521   -0.4040 C.3     1  UNL1        0.0453
      9 C          58.4445   95.3671   -1.7905 C.3     1  UNL1        0.0453
     10 O          59.3412   93.2545   -1.9096 O.3     1  UNL1       -0.4403
     11 O          60.1952   94.4137   -4.0723 O.2     1  UNL1       -0.2262
     12 C          59.2298   93.4930   -3.3864 C.2     1  UNL1        0.4047
     13 N          58.1532   92.8108   -4.1771 N.am    1  UNL1       -0.2459
     14 C          58.0419   93.0493   -5.6539 C.3     1  UNL1        0.0981
     15 C          56.9652   92.3671   -6.4448 C.3     1  UNL1        0.0361
     16 C          55.9999   91.4464   -5.7589 C.3     1  UNL1        0.0465
     17 C          55.5872   91.4372   -7.2009 C.3     1  UNL1        0.0316
     18 C          54.4773   90.4816   -6.8772 C.3     1  UNL1        0.0698
     19 N          54.8900   90.4907   -5.4351 N.3     1  UNL1       -0.2994
     20 C          56.1112   91.2079   -4.2821 C.3     1  UNL1        0.0361
     21 C          57.1878   91.8901   -3.4912 C.3     1  UNL1        0.0981
     22 H          55.2076   89.5861   -5.0871 H       1  UNL1        0.1232
     23 S          62.2350   94.3490   -0.9923 S.O2    1  UNL1        0.0635
     24 O          62.1609   95.7326   -0.4177 O.2     1  UNL1       -0.1528
     25 O          62.4618   93.2568   -1.7526 O.2     1  UNL1       -0.1528
     26 C          62.9800   94.8820   -2.1800 C.ar    1  UNL1        0.1223
     27 C          63.8751   93.9760   -2.9724 C.ar    1  UNL1        0.0208
     28 C          64.6201   94.5091   -4.1601 C.ar    1  UNL1        0.0128
     29 C          64.4702   95.9482   -4.5554 C.ar    1  UNL1        0.0578
     30 CL         65.2153   96.4813   -5.7431 Cl      1  UNL1       -0.0822
     31 C          63.5752   96.8543   -3.7630 C.ar    1  UNL1        0.0128
     32 C          62.8300   96.3213   -2.5753 C.ar    1  UNL1        0.0208
     33 C          63.7439   93.2260    1.3448 C.3     1  UNL1        0.0203
     34 C          64.5212   94.4841    1.5962 C.3     1  UNL1        0.0015
     35 C          65.3538   95.6212    1.0827 C.3     1  UNL1        0.0000
     36 C          65.0349   95.5259    2.5453 C.3     1  UNL1        0.0000
@<TRIPOS>BOND
     1    11    12    2
     2    12    10    1
     3    10     7    1
     4     1     7    1
     5     1     2    1
     6     2     3    1
     7     3     4    1
     8     4     5    1
     9     5    33    1
    10    33    34    1
    11    34    35    1
    12    35    36    1
    13     5     6    1
    14     6    23    1
    15    23    24    2
    16    23    25    2
    17    23    26    1
    18    26    27   ar
    19    27    28   ar
    20    28    29   ar
    21    29    30    1
    22    29    31   ar
    23    31    32   ar
    24     7     8    1
    25     8     9    1
    26    12    13   am
    27    13    14    1
    28    14    15    1
    29    15    16    1
    30    16    17    1
    31    17    18    1
    32    18    19    1
    33    16    20    1
    34    20    21    1
    35     9     7    1
    36    21    13    1
    37     6     1    1
    38    32    26   ar
    39    19    16    1
    40    36    34    1
    41    19    22    1
@<TRIPOS>MOLECULE
*****
 36 41 0 0 0
SMALL
GASTEIGER

@<TRIPOS>ATOM
      1 C          63.5740   90.0473   13.0044 C.3     1  UNL1        0.1455
      2 C          62.5046   89.4658   12.1278 C.3     1  UNL1        0.1634
      3 O          62.3286   89.9687   10.7257 O.3     1  UNL1       -0.3507
      4 C          63.2218   91.0530   10.2001 C.3     1  UNL1        0.1598
      5 C          64.2912   91.6345   11.0766 C.3     1  UNL1        0.1093
      6 N          64.4672   91.1316   12.4788 N.3     1  UNL1       -0.1499
      7 C          63.7500   89.5443   14.4065 C.3     1  UNL1        0.1550
      8 C          63.3928   90.7826   15.1741 C.3     1  UNL1        0.0453
      9 C          63.7808   89.5321   15.9062 C.3     1  UNL1        0.0453
     10 O          64.1684   88.1315   14.1260 O.3     1  UNL1       -0.4403
     11 O          63.5453   87.2787   16.4998 O.2     1  UNL1       -0.2262
     12 C          63.7214   87.0229   15.0323 C.2     1  UNL1        0.4047
     13 N          63.4506   85.6585   14.4710 N.am    1  UNL1       -0.2459
     14 C          63.0036   84.5499   15.3773 C.3     1  UNL1        0.0981
     15 C          62.7328   83.1854   14.8161 C.3     1  UNL1        0.0361
     16 C          62.9090   82.9296   13.3486 C.3     1  UNL1        0.0465
     17 C          62.4631   81.6167   13.9208 C.3     1  UNL1        0.0316
     18 C          62.5260   81.0000   12.5549 C.3     1  UNL1        0.0698
     19 N          62.9719   82.3130   11.9827 N.3     1  UNL1       -0.2994
     20 C          63.3559   84.0382   12.4424 C.3     1  UNL1        0.0361
     21 C          63.6268   85.4026   13.0035 C.3     1  UNL1        0.0981
     22 H          62.3187   82.7184   11.3123 H       1  UNL1        0.1232
     23 S          65.5366   91.7131   13.3554 S.O2    1  UNL1        0.0635
     24 O          64.9233   93.0733   13.2012 O.2     1  UNL1       -0.1528
     25 O          66.3050   90.6519   13.6810 O.2     1  UNL1       -0.1528
     26 C          66.6059   92.2946   14.2320 C.ar    1  UNL1        0.1223
     27 C          67.4440   91.3941   15.0903 C.ar    1  UNL1        0.0208
     28 C          68.5133   91.9756   15.9669 C.ar    1  UNL1        0.0128
     29 C          68.7445   93.4575   15.9853 C.ar    1  UNL1        0.0578
     30 CL         69.8138   94.0390   16.8619 Cl      1  UNL1       -0.0822
     31 C          67.9064   94.3580   15.1270 C.ar    1  UNL1        0.0128
     32 C          66.8371   93.7766   14.2504 C.ar    1  UNL1        0.0208
     33 C          65.1844   92.7188   10.5511 C.3     1  UNL1        0.0203
     34 C          66.6413   92.4451   10.3217 C.3     1  UNL1        0.0015
     35 C          67.8627   92.5512    9.4575 C.3     1  UNL1        0.0000
     36 C          67.9432   91.8647   10.7888 C.3     1  UNL1        0.0000
@<TRIPOS>BOND
     1    11    12    2
     2    12    10    1
     3    10     7    1
     4     1     7    1
     5     1     2    1
     6     2     3    1
     7     3     4    1
     8     4     5    1
     9     5    33    1
    10    33    34    1
    11    34    35    1
    12    35    36    1
    13     5     6    1
    14     6    23    1
    15    23    24    2
    16    23    25    2
    17    23    26    1
    18    26    27   ar
    19    27    28   ar
    20    28    29   ar
    21    29    30    1
    22    29    31   ar
    23    31    32   ar
    24     7     8    1
    25     8     9    1
    26    12    13   am
    27    13    14    1
    28    14    15    1
    29    15    16    1
    30    16    17    1
    31    17    18    1
    32    18    19    1
    33    16    20    1
    34    20    21    1
    35     9     7    1
    36    21    13    1
    37     6     1    1
    38    32    26   ar
    39    19    16    1
    40    36    34    1
    41    19    22    1
@<TRIPOS>MOLECULE
*****
 36 41 0 0 0
SMALL
GASTEIGER

@<TRIPOS>ATOM
      1 C          62.7339   89.7914   12.4514 C.3     1  UNL1        0.1455
      2 C          62.4339   91.1402   11.8675 C.3     1  UNL1        0.1634
      3 O          61.8555   91.2483   10.4878 O.3     1  UNL1       -0.3507
      4 C          61.5771   90.0078    9.6918 C.3     1  UNL1        0.1598
      5 C          61.8771   88.6590   10.2757 C.3     1  UNL1        0.1093
      6 N          62.4555   88.5509   11.6554 N.3     1  UNL1       -0.1499
      7 C          63.3122   89.6833   13.8311 C.3     1  UNL1        0.1550
      8 C          62.0779   89.3229   14.6034 C.3     1  UNL1        0.0453
      9 C          63.3921   89.4631   15.3128 C.3     1  UNL1        0.0453
     10 O          64.7474   90.0062   13.5381 O.3     1  UNL1       -0.4403
     11 O          65.5815   91.6324   15.3848 O.2     1  UNL1       -0.2262
     12 C          65.3140   91.3361   13.9388 C.2     1  UNL1        0.4047
     13 N          65.6131   92.3695   12.8937 N.am    1  UNL1       -0.2459
     14 C          66.1796   93.6993   13.2944 C.3     1  UNL1        0.0981
     15 C          66.4788   94.7329   12.2493 C.3     1  UNL1        0.0361
     16 C          66.2113   94.4366   10.8033 C.3     1  UNL1        0.0465
     17 C          66.7632   95.8312   10.8181 C.3     1  UNL1        0.0316
     18 C          66.6343   95.8981    9.3252 C.3     1  UNL1        0.0698
     19 N          66.0823   94.5034    9.3104 N.3     1  UNL1       -0.2994
     20 C          65.6447   93.1067   10.4026 C.3     1  UNL1        0.0361
     21 C          65.3456   92.0732   11.4477 C.3     1  UNL1        0.0981
     22 H          66.6643   93.8305    8.8116 H       1  UNL1        0.1232
     23 S          62.7555   87.2021   12.2394 S.O2    1  UNL1        0.0635
     24 O          61.3680   86.7457   11.8980 O.2     1  UNL1       -0.1528
     25 O          64.0325   87.3070   12.6646 O.2     1  UNL1       -0.1528
     26 C          63.0555   85.8534   12.8233 C.ar    1  UNL1        0.1223
     27 C          63.8637   85.7440   14.0822 C.ar    1  UNL1        0.0208
     28 C          64.1636   84.3953   14.6661 C.ar    1  UNL1        0.0128
     29 C          63.6555   83.1559   13.9911 C.ar    1  UNL1        0.0578
     30 CL         63.9554   81.8072   14.5750 Cl      1  UNL1       -0.0822
     31 C          62.8473   83.2653   12.7322 C.ar    1  UNL1        0.0128
     32 C          62.5473   84.6140   12.1482 C.ar    1  UNL1        0.0208
     33 C          61.5988   87.4185    9.4798 C.3     1  UNL1        0.0203
     34 C          60.4077   87.3627    8.5697 C.3     1  UNL1        0.0015
     35 C          59.3563   88.0638    7.7616 C.3     1  UNL1        0.0000
     36 C          59.3963   86.5648    7.8013 C.3     1  UNL1        0.0000
@<TRIPOS>BOND
     1    11    12    2
     2    12    10    1
     3    10     7    1
     4     1     7    1
     5     1     2    1
     6     2     3    1
     7     3     4    1
     8     4     5    1
     9     5    33    1
    10    33    34    1
    11    34    35    1
    12    35    36    1
    13     5     6    1
    14     6    23    1
    15    23    24    2
    16    23    25    2
    17    23    26    1
    18    26    27   ar
    19    27    28   ar
    20    28    29   ar
    21    29    30    1
    22    29    31   ar
    23    31    32   ar
    24     7     8    1
    25     8     9    1
    26    12    13   am
    27    13    14    1
    28    14    15    1
    29    15    16    1
    30    16    17    1
    31    17    18    1
    32    18    19    1
    33    16    20    1
    34    20    21    1
    35     9     7    1
    36    21    13    1
    37     6     1    1
    38    32    26   ar
    39    19    16    1
    40    36    34    1
    41    19    22    1
