@<TRIPOS>MOLECULE
*****
 33 36 0 0 0
SMALL
GASTEIGER

@<TRIPOS>ATOM
      1 C          63.6139   89.8798   13.7532 C.2     1  UNL1        0.2818
      2 O          65.0770   90.0938   14.0054 O.2     1  UNL1       -0.2668
      3 N          62.6742   89.6889   14.9066 N.am    1  UNL1       -0.2986
      4 H          61.7139   89.5484   14.7411 H       1  UNL1        0.1498
      5 C          63.3911   90.8649   11.2782 C.ar    1  UNL1        0.1010
      6 N          62.6612   90.4527   10.0344 N.ar    1  UNL1       -0.2125
      7 C          61.9096   89.1898   10.3349 C.ar    1  UNL1        0.2296
      8 O          62.1750   88.8215   11.7646 O.2     1  UNL1       -0.4303
      9 C          63.0906   89.8567   12.3476 C.ar    1  UNL1        0.2135
     10 C          61.0444   88.4288    9.3744 C.ar    1  UNL1        0.0536
     11 C          61.1206   86.9318    9.3206 C.ar    1  UNL1        0.0046
     12 C          60.2555   86.1709    8.3601 C.ar    1  UNL1        0.0002
     13 C          59.3142   86.9071    7.4534 C.ar    1  UNL1        0.0000
     14 C          59.2380   88.4041    7.5073 C.ar    1  UNL1        0.0002
     15 C          60.1031   89.1650    8.4678 C.ar    1  UNL1        0.0046
     16 C          64.2676   92.0730   11.4267 C.3     1  UNL1        0.0492
     17 C          66.6853   92.8071   10.8220 C.3     1  UNL1        0.0004
     18 C          65.3150   92.3711   10.3952 C.3     1  UNL1        0.0064
     19 C          63.1975   89.7120   16.3122 C.3     1  UNL1        0.0879
     20 C          63.6708   91.0013   16.9152 C.3     1  UNL1        0.0227
     21 C          63.2474   88.4458   17.1147 C.3     1  UNL1        0.0919
     22 N          63.1856   87.1164   16.4226 N.3     1  UNL1       -0.2684
     23 C          62.1841   86.0890   16.8600 C.3     1  UNL1        0.0939
     24 C          62.1222   84.7596   16.1680 C.3     1  UNL1        0.1109
     25 N          63.0621   84.4576   15.0385 N.pl3   1  UNL1       -0.2753
     26 C          64.0636   85.4849   14.6011 C.3     1  UNL1        0.1109
     27 C          64.1254   86.8144   15.2931 C.3     1  UNL1        0.0939
     28 C          63.0003   83.1282   14.3465 C.ar    1  UNL1        0.2203
     29 N          61.8348   82.2135   14.5819 N.ar    1  UNL1       -0.2121
     30 C          61.7731   80.8842   13.8899 C.ar    1  UNL1        0.1034
     31 C          62.8766   80.4694   12.9625 C.ar    1  UNL1        0.0414
     32 C          64.0420   81.3840   12.7271 C.ar    1  UNL1        0.1034
     33 N          64.1038   82.7134   13.4191 N.ar    1  UNL1       -0.2121
@<TRIPOS>BOND
     1    17    18    1
     2    18    16    1
     3    16     5    1
     4     5     6   ar
     5     6     7   ar
     6     7    10    1
     7    10    11   ar
     8    11    12   ar
     9    12    13   ar
    10    13    14   ar
    11    14    15   ar
    12     7     8   ar
    13     8     9   ar
    14     9     1    1
    15     1     2    2
    16     1     3   am
    17     3    19    1
    18    19    20    1
    19    19    21    1
    20    21    22    1
    21    22    23    1
    22    23    24    1
    23    24    25    1
    24    25    28    1
    25    28    29   ar
    26    29    30   ar
    27    30    31   ar
    28    31    32   ar
    29    32    33   ar
    30    25    26    1
    31    26    27    1
    32     9     5   ar
    33    27    22    1
    34    15    10   ar
    35    33    28   ar
    36     3     4    1
@<TRIPOS>MOLECULE
*****
 33 36 0 0 0
SMALL
GASTEIGER

@<TRIPOS>ATOM
      1 C          64.3682   91.0339   14.0876 C.2     1  UNL1        0.2818
      2 O          62.8806   91.0971   13.9063 O.2     1  UNL1       -0.2668
      3 N          64.9869   89.8752   14.8118 N.am    1  UNL1       -0.2986
      4 H          65.9633   89.8337   14.9308 H       1  UNL1        0.1498
      5 C          66.2665   92.9021   14.3152 C.ar    1  UNL1        0.1010
      6 N          66.8948   93.8949   13.3826 N.ar    1  UNL1       -0.2125
      7 C          66.2539   93.7358   12.0358 C.ar    1  UNL1        0.2296
      8 O          65.2294   92.6447   12.1359 O.2     1  UNL1       -0.4303
      9 C          65.2372   92.1295   13.5446 C.ar    1  UNL1        0.2135
     10 C          66.5802   94.5286   10.8049 C.ar    1  UNL1        0.0536
     11 C          67.2421   93.8608    9.6362 C.ar    1  UNL1        0.0046
     12 C          67.5684   94.6537    8.4054 C.ar    1  UNL1        0.0002
     13 C          67.2326   96.1143    8.3433 C.ar    1  UNL1        0.0000
     14 C          66.5707   96.7821    9.5119 C.ar    1  UNL1        0.0002
     15 C          66.2444   95.9892   10.7427 C.ar    1  UNL1        0.0046
     16 C          66.6075   92.7149   15.7638 C.3     1  UNL1        0.0492
     17 C          69.1234   93.3532   15.8787 C.3     1  UNL1        0.0004
     18 C          68.0143   92.3852   16.1666 C.3     1  UNL1        0.0064
     19 C          64.1180   88.7797   15.3547 C.3     1  UNL1        0.0879
     20 C          63.1265   89.0772   16.4403 C.3     1  UNL1        0.0227
     21 C          64.2406   87.3867   14.8121 C.3     1  UNL1        0.0919
     22 N          63.6500   87.0479   13.4755 N.3     1  UNL1       -0.2684
     23 C          63.4677   85.6130   13.0781 C.3     1  UNL1        0.0939
     24 C          62.8772   85.2742   11.7415 C.3     1  UNL1        0.1109
     25 N          62.4689   86.3703   10.8023 N.pl3   1  UNL1       -0.2753
     26 C          62.6511   87.8052   11.1997 C.3     1  UNL1        0.1109
     27 C          63.2417   88.1440   12.5363 C.3     1  UNL1        0.0939
     28 C          61.8783   86.0315    9.4657 C.ar    1  UNL1        0.2203
     29 N          62.6867   85.2650    8.4611 N.ar    1  UNL1       -0.2121
     30 C          62.0961   84.9262    7.1245 C.ar    1  UNL1        0.1034
     31 C          60.6972   85.3538    6.7926 C.ar    1  UNL1        0.0414
     32 C          59.8889   86.1202    7.7972 C.ar    1  UNL1        0.1034
     33 N          60.4794   86.4590    9.1338 N.ar    1  UNL1       -0.2121
@<TRIPOS>BOND
     1    17    18    1
     2    18    16    1
     3    16     5    1
     4     5     6   ar
     5     6     7   ar
     6     7    10    1
     7    10    11   ar
     8    11    12   ar
     9    12    13   ar
    10    13    14   ar
    11    14    15   ar
    12     7     8   ar
    13     8     9   ar
    14     9     1    1
    15     1     2    2
    16     1     3   am
    17     3    19    1
    18    19    20    1
    19    19    21    1
    20    21    22    1
    21    22    23    1
    22    23    24    1
    23    24    25    1
    24    25    28    1
    25    28    29   ar
    26    29    30   ar
    27    30    31   ar
    28    31    32   ar
    29    32    33   ar
    30    25    26    1
    31    26    27    1
    32     9     5   ar
    33    27    22    1
    34    15    10   ar
    35    33    28   ar
    36     3     4    1
@<TRIPOS>MOLECULE
*****
 33 36 0 0 0
SMALL
GASTEIGER

@<TRIPOS>ATOM
      1 C          62.1800   87.5417   10.8782 C.2     1  UNL1        0.2818
      2 O          62.3051   87.4406    9.3869 O.2     1  UNL1       -0.2668
      3 N          61.6938   88.8145   11.5055 N.am    1  UNL1       -0.2986
      4 H          61.6116   88.8809   12.4843 H       1  UNL1        0.1498
      5 C          63.3618   86.4194   12.9969 C.ar    1  UNL1        0.1010
      6 N          63.4727   85.0230   13.5335 N.ar    1  UNL1       -0.2125
      7 C          62.7206   84.1106   12.6105 C.ar    1  UNL1        0.2296
      8 O          62.1448   84.9431   11.5035 O.2     1  UNL1       -0.4303
      9 C          62.5410   86.3699   11.7423 C.ar    1  UNL1        0.2135
     10 C          62.5706   82.6263   12.7671 C.ar    1  UNL1        0.0536
     11 C          62.0029   82.0594   14.0345 C.ar    1  UNL1        0.0046
     12 C          61.8529   80.5752   14.1910 C.ar    1  UNL1        0.0002
     13 C          62.2707   79.6579   13.0802 C.ar    1  UNL1        0.0000
     14 C          62.8385   80.2248   11.8128 C.ar    1  UNL1        0.0002
     15 C          62.9884   81.7090   11.6563 C.ar    1  UNL1        0.0046
     16 C          63.9655   87.6492   13.6077 C.3     1  UNL1        0.0492
     17 C          63.5483   88.6415   15.9723 C.3     1  UNL1        0.0004
     18 C          64.2745   87.6835   15.0752 C.3     1  UNL1        0.0064
     19 C          61.3327   89.9863   10.6414 C.3     1  UNL1        0.0879
     20 C          59.9053   90.2091   10.2380 C.3     1  UNL1        0.0227
     21 C          62.3991   90.9352   10.1807 C.3     1  UNL1        0.0919
     22 N          63.5183   91.3119   11.1056 N.3     1  UNL1       -0.2684
     23 C          63.4725   90.8969   12.5463 C.3     1  UNL1        0.0939
     24 C          64.5918   91.2737   13.4712 C.3     1  UNL1        0.1109
     25 N          65.7568   92.0654   12.9554 N.pl3   1  UNL1       -0.2753
     26 C          65.8025   92.4804   11.5147 C.3     1  UNL1        0.1109
     27 C          64.6833   92.1037   10.5898 C.3     1  UNL1        0.0939
     28 C          66.8760   92.4422   13.8803 C.ar    1  UNL1        0.2203
     29 N          66.5736   93.0944   15.1969 N.ar    1  UNL1       -0.2121
     30 C          67.6928   93.4711   16.1218 C.ar    1  UNL1        0.1034
     31 C          69.1143   93.1956   15.7301 C.ar    1  UNL1        0.0414
     32 C          69.4166   92.5434   14.4136 C.ar    1  UNL1        0.1034
     33 N          68.2974   92.1667   13.4887 N.ar    1  UNL1       -0.2121
@<TRIPOS>BOND
     1    17    18    1
     2    18    16    1
     3    16     5    1
     4     5     6   ar
     5     6     7   ar
     6     7    10    1
     7    10    11   ar
     8    11    12   ar
     9    12    13   ar
    10    13    14   ar
    11    14    15   ar
    12     7     8   ar
    13     8     9   ar
    14     9     1    1
    15     1     2    2
    16     1     3   am
    17     3    19    1
    18    19    20    1
    19    19    21    1
    20    21    22    1
    21    22    23    1
    22    23    24    1
    23    24    25    1
    24    25    28    1
    25    28    29   ar
    26    29    30   ar
    27    30    31   ar
    28    31    32   ar
    29    32    33   ar
    30    25    26    1
    31    26    27    1
    32     9     5   ar
    33    27    22    1
    34    15    10   ar
    35    33    28   ar
    36     3     4    1
@<TRIPOS>MOLECULE
*****
 33 36 0 0 0
SMALL
GASTEIGER

@<TRIPOS>ATOM
      1 C          64.2660   90.5760   13.8382 C.2     1  UNL1        0.2818
      2 O          63.5162   89.6565   12.9205 O.2     1  UNL1       -0.2668
      3 N          64.0998   90.4522   15.3238 N.am    1  UNL1       -0.2986
      4 H          64.5919   91.0558   15.9262 H       1  UNL1        0.1498
      5 C          66.4755   92.0800   13.8742 C.ar    1  UNL1        0.1010
      6 N          67.0581   93.1306   12.9760 N.ar    1  UNL1       -0.2125
      7 C          66.1247   93.3192   11.8170 C.ar    1  UNL1        0.2296
      8 O          64.9652   92.3852   11.9989 O.2     1  UNL1       -0.4303
      9 C          65.1819   91.6194   13.2703 C.ar    1  UNL1        0.2135
     10 C          66.3171   94.2742   10.6763 C.ar    1  UNL1        0.0536
     11 C          67.2161   93.9060    9.5334 C.ar    1  UNL1        0.0046
     12 C          67.4085   94.8610    8.3929 C.ar    1  UNL1        0.0002
     13 C          66.7019   96.1841    8.3951 C.ar    1  UNL1        0.0000
     14 C          65.8029   96.5523    9.5380 C.ar    1  UNL1        0.0002
     15 C          65.6105   95.5973   10.6786 C.ar    1  UNL1        0.0046
     16 C          67.0801   91.5783   15.1519 C.3     1  UNL1        0.0492
     17 C          69.0481   93.0186   16.0478 C.3     1  UNL1        0.0004
     18 C          67.6272   92.5500   16.1551 C.3     1  UNL1        0.0064
     19 C          63.1838   89.4089   15.8917 C.3     1  UNL1        0.0879
     20 C          61.6986   89.6158   15.8574 C.3     1  UNL1        0.0227
     21 C          63.7532   88.1587   16.4939 C.3     1  UNL1        0.0919
     22 N          63.5695   86.8413   15.8005 N.3     1  UNL1       -0.2684
     23 C          64.2046   86.6030   14.4626 C.3     1  UNL1        0.0939
     24 C          64.0210   85.2856   13.7692 C.3     1  UNL1        0.1109
     25 N          63.2022   84.2065   14.4137 N.pl3   1  UNL1       -0.2753
     26 C          62.5672   84.4448   15.7515 C.3     1  UNL1        0.1109
     27 C          62.7508   85.7622   16.4450 C.3     1  UNL1        0.0939
     28 C          63.0186   82.8891   13.7203 C.ar    1  UNL1        0.2203
     29 N          62.6924   81.6610   14.5174 N.ar    1  UNL1       -0.2121
     30 C          62.5088   80.3437   13.8239 C.ar    1  UNL1        0.1034
     31 C          62.6514   80.2545   12.3335 C.ar    1  UNL1        0.0414
     32 C          62.9776   81.4825   11.5364 C.ar    1  UNL1        0.1034
     33 N          63.1612   82.7999   12.2298 N.ar    1  UNL1       -0.2121
@<TRIPOS>BOND
     1    17    18    1
     2    18    16    1
     3    16     5    1
     4     5     6   ar
     5     6     7   ar
     6     7    10    1
     7    10    11   ar
     8    11    12   ar
     9    12    13   ar
    10    13    14   ar
    11    14    15   ar
    12     7     8   ar
    13     8     9   ar
    14     9     1    1
    15     1     2    2
    16     1     3   am
    17     3    19    1
    18    19    20    1
    19    19    21    1
    20    21    22    1
    21    22    23    1
    22    23    24    1
    23    24    25    1
    24    25    28    1
    25    28    29   ar
    26    29    30   ar
    27    30    31   ar
    28    31    32   ar
    29    32    33   ar
    30    25    26    1
    31    26    27    1
    32     9     5   ar
    33    27    22    1
    34    15    10   ar
    35    33    28   ar
    36     3     4    1
@<TRIPOS>MOLECULE
*****
 33 36 0 0 0
SMALL
GASTEIGER

@<TRIPOS>ATOM
      1 C          63.8105   87.3718   14.1715 C.2     1  UNL1        0.2818
      2 O          64.3805   86.8155   15.4426 O.2     1  UNL1       -0.2668
      3 N          63.6089   88.8509   14.0242 N.am    1  UNL1       -0.2986
      4 H          63.2347   89.2160   13.1900 H       1  UNL1        0.1498
      5 C          63.5981   84.9571   13.0448 C.ar    1  UNL1        0.1010
      6 N          63.1053   84.4423   11.7249 N.ar    1  UNL1       -0.2125
      7 C          62.6447   85.6159   10.9122 C.ar    1  UNL1        0.2296
      8 O          62.8528   86.8561   11.7298 O.2     1  UNL1       -0.4303
      9 C          63.4420   86.4491   13.0478 C.ar    1  UNL1        0.2135
     10 C          62.0759   85.5592    9.5253 C.ar    1  UNL1        0.0536
     11 C          62.8551   84.9084    8.4212 C.ar    1  UNL1        0.0046
     12 C          62.2863   84.8517    7.0344 C.ar    1  UNL1        0.0002
     13 C          60.9383   85.4458    6.7518 C.ar    1  UNL1        0.0000
     14 C          60.1590   86.0966    7.8560 C.ar    1  UNL1        0.0002
     15 C          60.7279   86.1533    9.2428 C.ar    1  UNL1        0.0046
     16 C          64.1500   84.1261   14.1649 C.3     1  UNL1        0.0492
     17 C          62.1944   82.4529   14.5201 C.3     1  UNL1        0.0004
     18 C          63.2186   83.3926   15.0840 C.3     1  UNL1        0.0064
     19 C          63.9773   89.7736   15.1480 C.3     1  UNL1        0.0879
     20 C          63.0561   89.9319   16.3211 C.3     1  UNL1        0.0227
     21 C          65.2669   90.5380   15.0985 C.3     1  UNL1        0.0919
     22 N          65.4980   91.5496   14.0153 N.3     1  UNL1       -0.2684
     23 C          66.4351   92.6974   14.2485 C.3     1  UNL1        0.0939
     24 C          66.6662   93.7090   13.1653 C.3     1  UNL1        0.1109
     25 N          65.9602   93.5728   11.8488 N.pl3   1  UNL1       -0.2753
     26 C          65.0231   92.4250   11.6156 C.3     1  UNL1        0.1109
     27 C          64.7920   91.4134   12.6988 C.3     1  UNL1        0.0939
     28 C          66.1913   94.5844   10.7656 C.ar    1  UNL1        0.2203
     29 N          65.1982   95.6867   10.5446 N.ar    1  UNL1       -0.2121
     30 C          65.4294   96.6982    9.4614 C.ar    1  UNL1        0.1034
     31 C          66.6535   96.6075    8.5993 C.ar    1  UNL1        0.0414
     32 C          67.6465   95.5052    8.8204 C.ar    1  UNL1        0.1034
     33 N          67.4154   94.4936    9.9036 N.ar    1  UNL1       -0.2121
@<TRIPOS>BOND
     1    17    18    1
     2    18    16    1
     3    16     5    1
     4     5     6   ar
     5     6     7   ar
     6     7    10    1
     7    10    11   ar
     8    11    12   ar
     9    12    13   ar
    10    13    14   ar
    11    14    15   ar
    12     7     8   ar
    13     8     9   ar
    14     9     1    1
    15     1     2    2
    16     1     3   am
    17     3    19    1
    18    19    20    1
    19    19    21    1
    20    21    22    1
    21    22    23    1
    22    23    24    1
    23    24    25    1
    24    25    28    1
    25    28    29   ar
    26    29    30   ar
    27    30    31   ar
    28    31    32   ar
    29    32    33   ar
    30    25    26    1
    31    26    27    1
    32     9     5   ar
    33    27    22    1
    34    15    10   ar
    35    33    28   ar
    36     3     4    1
@<TRIPOS>MOLECULE
*****
 33 36 0 0 0
SMALL
GASTEIGER

@<TRIPOS>ATOM
      1 C          61.5478   87.3325   10.1261 C.2     1  UNL1        0.2818
      2 O          60.8392   87.6998    8.8560 O.2     1  UNL1       -0.2668
      3 N          61.7107   88.3508   11.2154 N.am    1  UNL1       -0.2986
      4 H          62.1758   88.1097   12.0490 H       1  UNL1        0.1498
      5 C          62.8265   85.1462    9.2717 C.ar    1  UNL1        0.1010
      6 N          63.1880   83.8233    9.8795 N.ar    1  UNL1       -0.2125
      7 C          62.6783   83.8066   11.2902 C.ar    1  UNL1        0.2296
      8 O          62.0018   85.1191   11.5542 O.2     1  UNL1       -0.4303
      9 C          62.0934   85.9470   10.3068 C.ar    1  UNL1        0.2135
     10 C          62.8201   82.6758   12.2656 C.ar    1  UNL1        0.0536
     11 C          62.5283   81.2700   11.8316 C.ar    1  UNL1        0.0046
     12 C          62.6702   80.1393   12.8070 C.ar    1  UNL1        0.0002
     13 C          63.1039   80.4145   14.2163 C.ar    1  UNL1        0.0000
     14 C          63.3957   81.8203   14.6503 C.ar    1  UNL1        0.0002
     15 C          63.2538   82.9510   13.6749 C.ar    1  UNL1        0.0046
     16 C          63.1426   85.5902    7.8743 C.3     1  UNL1        0.0492
     17 C          61.3336   84.5228    6.3453 C.3     1  UNL1        0.0004
     18 C          62.7753   84.7194    6.7094 C.3     1  UNL1        0.0064
     19 C          61.1651   89.7363   11.0347 C.3     1  UNL1        0.0879
     20 C          59.7132   90.0103   11.2936 C.3     1  UNL1        0.0227
     21 C          62.0713   90.8477   10.5950 C.3     1  UNL1        0.0919
     22 N          63.2582   91.2231   11.4318 N.3     1  UNL1       -0.2684
     23 C          63.3463   90.7642   12.8571 C.3     1  UNL1        0.0939
     24 C          64.5333   91.1395   13.6939 C.3     1  UNL1        0.1109
     25 N          65.6323   91.9738   13.1053 N.pl3   1  UNL1       -0.2753
     26 C          65.5442   92.4327   11.6799 C.3     1  UNL1        0.1109
     27 C          64.3572   92.0573   10.8431 C.3     1  UNL1        0.0939
     28 C          66.8192   92.3491   13.9421 C.ar    1  UNL1        0.2203
     29 N          66.6205   93.0421   15.2576 N.ar    1  UNL1       -0.2121
     30 C          67.8076   93.4174   16.0943 C.ar    1  UNL1        0.1034
     31 C          69.1931   93.0998   15.6156 C.ar    1  UNL1        0.0414
     32 C          69.3918   92.4069   14.3002 C.ar    1  UNL1        0.1034
     33 N          68.2048   92.0315   13.4634 N.ar    1  UNL1       -0.2121
@<TRIPOS>BOND
     1    17    18    1
     2    18    16    1
     3    16     5    1
     4     5     6   ar
     5     6     7   ar
     6     7    10    1
     7    10    11   ar
     8    11    12   ar
     9    12    13   ar
    10    13    14   ar
    11    14    15   ar
    12     7     8   ar
    13     8     9   ar
    14     9     1    1
    15     1     2    2
    16     1     3   am
    17     3    19    1
    18    19    20    1
    19    19    21    1
    20    21    22    1
    21    22    23    1
    22    23    24    1
    23    24    25    1
    24    25    28    1
    25    28    29   ar
    26    29    30   ar
    27    30    31   ar
    28    31    32   ar
    29    32    33   ar
    30    25    26    1
    31    26    27    1
    32     9     5   ar
    33    27    22    1
    34    15    10   ar
    35    33    28   ar
    36     3     4    1
@<TRIPOS>MOLECULE
*****
 33 36 0 0 0
SMALL
GASTEIGER

@<TRIPOS>ATOM
      1 C          63.1549   84.8446   13.3536 C.2     1  UNL1        0.2818
      2 O          64.5151   84.2903   13.6579 O.2     1  UNL1       -0.2668
      3 N          62.2055   85.1582   14.4717 N.am    1  UNL1       -0.2986
      4 H          61.3128   85.5220   14.2720 H       1  UNL1        0.1498
      5 C          63.1945   84.2960   10.7377 C.ar    1  UNL1        0.1010
      6 N          62.5396   84.8806    9.5214 N.ar    1  UNL1       -0.2125
      7 C          61.6846   86.0312    9.9631 C.ar    1  UNL1        0.2296
      8 O          61.8110   86.1577   11.4523 O.2     1  UNL1       -0.4303
      9 C          62.7442   85.0854   11.9311 C.ar    1  UNL1        0.2135
     10 C          60.8496   86.9023    9.0719 C.ar    1  UNL1        0.0536
     11 C          60.0219   86.2865    7.9830 C.ar    1  UNL1        0.0046
     12 C          59.1870   87.1576    7.0919 C.ar    1  UNL1        0.0002
     13 C          59.1799   88.6445    7.2896 C.ar    1  UNL1        0.0000
     14 C          60.0076   89.2603    8.3784 C.ar    1  UNL1        0.0002
     15 C          60.8425   88.3892    9.2695 C.ar    1  UNL1        0.0046
     16 C          64.1346   83.1274   10.7572 C.3     1  UNL1        0.0492
     17 C          62.8519   81.3224   12.1160 C.3     1  UNL1        0.0004
     18 C          63.5954   81.7330   10.8797 C.3     1  UNL1        0.0064
     19 C          62.6163   84.9174   15.8941 C.3     1  UNL1        0.0879
     20 C          62.7305   83.5153   16.4147 C.3     1  UNL1        0.0227
     21 C          62.9128   86.0787   16.7959 C.3     1  UNL1        0.0919
     22 N          63.4670   87.3499   16.2241 N.3     1  UNL1       -0.2684
     23 C          63.0514   88.6731   16.7953 C.3     1  UNL1        0.0939
     24 C          63.6056   89.9443   16.2234 C.3     1  UNL1        0.1109
     25 N          64.5756   89.8921   15.0803 N.pl3   1  UNL1       -0.2753
     26 C          64.9913   88.5689   14.5092 C.3     1  UNL1        0.1109
     27 C          64.4370   87.2978   15.0810 C.3     1  UNL1        0.0939
     28 C          65.1299   91.1633   14.5085 C.ar    1  UNL1        0.2203
     29 N          64.8852   91.5075   13.0691 N.ar    1  UNL1       -0.2121
     30 C          65.4395   92.7787   12.4973 C.ar    1  UNL1        0.1034
     31 C          66.2384   93.7055   13.3649 C.ar    1  UNL1        0.0414
     32 C          66.4830   93.3613   14.8042 C.ar    1  UNL1        0.1034
     33 N          65.9287   92.0902   15.3760 N.ar    1  UNL1       -0.2121
@<TRIPOS>BOND
     1    17    18    1
     2    18    16    1
     3    16     5    1
     4     5     6   ar
     5     6     7   ar
     6     7    10    1
     7    10    11   ar
     8    11    12   ar
     9    12    13   ar
    10    13    14   ar
    11    14    15   ar
    12     7     8   ar
    13     8     9   ar
    14     9     1    1
    15     1     2    2
    16     1     3   am
    17     3    19    1
    18    19    20    1
    19    19    21    1
    20    21    22    1
    21    22    23    1
    22    23    24    1
    23    24    25    1
    24    25    28    1
    25    28    29   ar
    26    29    30   ar
    27    30    31   ar
    28    31    32   ar
    29    32    33   ar
    30    25    26    1
    31    26    27    1
    32     9     5   ar
    33    27    22    1
    34    15    10   ar
    35    33    28   ar
    36     3     4    1
@<TRIPOS>MOLECULE
*****
 33 36 0 0 0
SMALL
GASTEIGER

@<TRIPOS>ATOM
      1 C          62.3606   89.4132   13.5211 C.2     1  UNL1        0.2818
      2 O          61.0698   89.6131   14.2586 O.2     1  UNL1       -0.2668
      3 N          63.6652   89.4960   14.2566 N.am    1  UNL1       -0.2986
      4 H          64.5124   89.3648   13.7726 H       1  UNL1        0.1498
      5 C          62.7098   90.0985   10.9610 C.ar    1  UNL1        0.1010
      6 N          62.5548   89.3965    9.6446 N.ar    1  UNL1       -0.2125
      7 C          62.0960   87.9947    9.9178 C.ar    1  UNL1        0.2296
      8 O          61.9675   87.8304   11.4032 O.2     1  UNL1       -0.4303
      9 C          62.3468   89.1306   12.0480 C.ar    1  UNL1        0.2135
     10 C          61.8152   86.9421    8.8867 C.ar    1  UNL1        0.0536
     11 C          60.4530   86.8446    8.2662 C.ar    1  UNL1        0.0046
     12 C          60.1722   85.7920    7.2352 C.ar    1  UNL1        0.0002
     13 C          61.2535   84.8370    6.8245 C.ar    1  UNL1        0.0000
     14 C          62.6157   84.9345    7.4450 C.ar    1  UNL1        0.0002
     15 C          62.8965   85.9871    8.4760 C.ar    1  UNL1        0.0046
     16 C          63.1504   91.5189   11.1563 C.3     1  UNL1        0.0492
     17 C          65.3253   92.3221   12.3287 C.3     1  UNL1        0.0004
     18 C          64.6079   91.8676   11.0923 C.3     1  UNL1        0.0064
     19 C          63.6791   89.7787   15.7297 C.3     1  UNL1        0.0879
     20 C          63.8915   91.1793   16.2227 C.3     1  UNL1        0.0227
     21 C          63.4806   88.6606   16.7097 C.3     1  UNL1        0.0919
     22 N          63.3226   87.2521   16.2187 N.3     1  UNL1       -0.2684
     23 C          62.2849   86.3571   16.8287 C.3     1  UNL1        0.0939
     24 C          62.1269   84.9486   16.3377 C.3     1  UNL1        0.1109
     25 N          63.0067   84.4350   15.2366 N.pl3   1  UNL1       -0.2753
     26 C          64.0445   85.3300   14.6266 C.3     1  UNL1        0.1109
     27 C          64.2025   86.7385   15.1176 C.3     1  UNL1        0.0939
     28 C          62.8488   83.0265   14.7456 C.ar    1  UNL1        0.2203
     29 N          61.4809   82.4220   14.6286 N.ar    1  UNL1       -0.2121
     30 C          61.3230   81.0135   14.1375 C.ar    1  UNL1        0.1034
     31 C          62.5328   80.2095   13.7635 C.ar    1  UNL1        0.0414
     32 C          63.9006   80.8140   13.8805 C.ar    1  UNL1        0.1034
     33 N          64.0586   82.2226   14.3715 N.ar    1  UNL1       -0.2121
@<TRIPOS>BOND
     1    17    18    1
     2    18    16    1
     3    16     5    1
     4     5     6   ar
     5     6     7   ar
     6     7    10    1
     7    10    11   ar
     8    11    12   ar
     9    12    13   ar
    10    13    14   ar
    11    14    15   ar
    12     7     8   ar
    13     8     9   ar
    14     9     1    1
    15     1     2    2
    16     1     3   am
    17     3    19    1
    18    19    20    1
    19    19    21    1
    20    21    22    1
    21    22    23    1
    22    23    24    1
    23    24    25    1
    24    25    28    1
    25    28    29   ar
    26    29    30   ar
    27    30    31   ar
    28    31    32   ar
    29    32    33   ar
    30    25    26    1
    31    26    27    1
    32     9     5   ar
    33    27    22    1
    34    15    10   ar
    35    33    28   ar
    36     3     4    1
@<TRIPOS>MOLECULE
*****
 33 36 0 0 0
SMALL
GASTEIGER

@<TRIPOS>ATOM
      1 C          62.9321   90.1398   13.5182 C.2     1  UNL1        0.2818
      2 O          61.4947   89.7120   13.5499 O.2     1  UNL1       -0.2668
      3 N          63.8203   89.8726   14.6970 N.am    1  UNL1       -0.2986
      4 H          64.7637   90.1533   14.6762 H       1  UNL1        0.1498
      5 C          63.0175   90.6422   10.8941 C.ar    1  UNL1        0.1010
      6 N          63.8402   91.5328   10.0109 N.ar    1  UNL1       -0.2125
      7 C          64.8124   92.2758   10.8786 C.ar    1  UNL1        0.2296
      8 O          64.5906   91.8444   12.2979 O.2     1  UNL1       -0.4303
      9 C          63.4813   90.8348   12.3076 C.ar    1  UNL1        0.2135
     10 C          65.8282   93.2748   10.4091 C.ar    1  UNL1        0.0536
     11 C          65.5495   94.7433   10.5346 C.ar    1  UNL1        0.0046
     12 C          66.5652   95.7422   10.0652 C.ar    1  UNL1        0.0002
     13 C          67.8597   95.2726    9.4703 C.ar    1  UNL1        0.0000
     14 C          68.1384   93.8041    9.3448 C.ar    1  UNL1        0.0002
     15 C          67.1226   92.8052    9.8142 C.ar    1  UNL1        0.0046
     16 C          61.9231   89.7208   10.4430 C.3     1  UNL1        0.0492
     17 C          62.1077   87.1849   10.9768 C.3     1  UNL1        0.0004
     18 C          62.2509   88.3226   10.0099 C.3     1  UNL1        0.0064
     19 C          63.2711   89.1776   15.9076 C.3     1  UNL1        0.0879
     20 C          62.0684   89.7337   16.6105 C.3     1  UNL1        0.0227
     21 C          63.9247   87.9266   16.4151 C.3     1  UNL1        0.0919
     22 N          63.6915   86.6211   15.7140 N.3     1  UNL1       -0.2684
     23 C          64.3061   86.3720   14.3686 C.3     1  UNL1        0.0939
     24 C          64.0728   85.0666   13.6675 C.3     1  UNL1        0.1109
     25 N          63.2249   84.0102   14.3120 N.pl3   1  UNL1       -0.2753
     26 C          62.6103   84.2593   15.6574 C.3     1  UNL1        0.1109
     27 C          62.8435   85.5648   16.3585 C.3     1  UNL1        0.0939
     28 C          62.9916   82.7048   13.6109 C.ar    1  UNL1        0.2203
     29 N          63.2610   82.5847   12.1402 N.ar    1  UNL1       -0.2121
     30 C          63.0278   81.2792   11.4392 C.ar    1  UNL1        0.1034
     31 C          62.5251   80.0940   12.2089 C.ar    1  UNL1        0.0414
     32 C          62.2557   80.2141   13.6796 C.ar    1  UNL1        0.1034
     33 N          62.4889   81.5196   14.3806 N.ar    1  UNL1       -0.2121
@<TRIPOS>BOND
     1    17    18    1
     2    18    16    1
     3    16     5    1
     4     5     6   ar
     5     6     7   ar
     6     7    10    1
     7    10    11   ar
     8    11    12   ar
     9    12    13   ar
    10    13    14   ar
    11    14    15   ar
    12     7     8   ar
    13     8     9   ar
    14     9     1    1
    15     1     2    2
    16     1     3   am
    17     3    19    1
    18    19    20    1
    19    19    21    1
    20    21    22    1
    21    22    23    1
    22    23    24    1
    23    24    25    1
    24    25    28    1
    25    28    29   ar
    26    29    30   ar
    27    30    31   ar
    28    31    32   ar
    29    32    33   ar
    30    25    26    1
    31    26    27    1
    32     9     5   ar
    33    27    22    1
    34    15    10   ar
    35    33    28   ar
    36     3     4    1
