@<TRIPOS>MOLECULE
*****
 34 38 0 0 0
SMALL
GASTEIGER

@<TRIPOS>ATOM
      1 C          63.0065   86.3218   12.3830 C.2     1  UNL1        0.2506
      2 O          63.5099   87.1882   13.4992 O.2     1  UNL1       -0.2699
      3 N          62.2430   86.9325   11.2454 N.am    1  UNL1       -0.2724
      4 C          61.7396   86.0661   10.1292 C.3     1  UNL1        0.1231
      5 C          60.9760   86.6769    8.9916 C.3     1  UNL1        0.1351
      6 C          60.4726   85.8105    7.8754 C.3     1  UNL1        0.0339
      7 O          60.7160   88.1540    8.9702 O.3     1  UNL1       -0.3527
      8 C          61.2194   89.0204   10.0864 C.3     1  UNL1        0.1621
      9 C          61.9829   88.4097   11.2240 C.3     1  UNL1        0.1096
     10 C          63.9954   81.8897    9.8574 C.3     1  UNL1        0.0310
     11 C          63.7610   82.6286   11.1416 C.ar    1  UNL1       -0.0216
     12 C          63.7867   81.8905   12.4471 C.ar    1  UNL1       -0.0026
     13 C          63.5523   82.6294   13.7312 C.ar    1  UNL1        0.0207
     14 C          63.2922   84.1065   13.7099 C.ar    1  UNL1        0.1072
     15 C          63.2666   84.8446   12.4044 C.ar    1  UNL1        0.0726
     16 C          63.5010   84.1057   11.1202 C.ar    1  UNL1        0.0018
     17 N          63.0578   84.8454   14.9940 N.ar    1  UNL1       -0.1477
     18 N          61.7390   85.0072   15.6901 N.ar    1  UNL1       -0.1447
     19 C          61.9672   85.8140   16.9339 C.ar    1  UNL1        0.1446
     20 C          63.4271   86.1510   17.0065 C.ar    1  UNL1        0.1446
     21 N          64.1011   85.5523   15.8076 N.ar    1  UNL1       -0.1447
     22 C          62.4863   89.2761   12.3402 C.3     1  UNL1        0.0487
     23 C          63.4687   90.3728   12.0537 C.ar    1  UNL1       -0.0203
     24 C          63.4261   91.0933   10.7388 C.ar    1  UNL1       -0.0042
     25 C          64.4085   92.1900   10.4523 C.ar    1  UNL1       -0.0002
     26 C          65.4336   92.5662   11.4808 C.ar    1  UNL1        0.0030
     27 C          65.4762   91.8456   12.7957 C.ar    1  UNL1        0.0355
     28 C          64.4938   90.7489   13.0822 C.ar    1  UNL1       -0.0012
     29 C          66.5013   92.2218   13.8242 C.ar    1  UNL1        0.1622
     30 N          66.0658   92.6828   15.1836 N.ar    1  UNL1       -0.2250
     31 C          67.0908   93.0590   16.2120 C.ar    1  UNL1        0.1022
     32 C          68.5515   92.9742   15.8811 C.ar    1  UNL1        0.0414
     33 C          68.9869   92.5132   14.5217 C.ar    1  UNL1        0.1022
     34 N          67.9619   92.1370   13.4933 N.ar    1  UNL1       -0.2250
@<TRIPOS>BOND
     1    10    11    1
     2    11    12   ar
     3    12    13   ar
     4    13    14   ar
     5    14    17    1
     6    17    18   ar
     7    18    19   ar
     8    19    20   ar
     9    20    21   ar
    10    14    15   ar
    11    15     1    1
    12     1     2    2
    13     1     3   am
    14     3     4    1
    15     4     5    1
    16     5     6    1
    17     5     7    1
    18     7     8    1
    19     8     9    1
    20     9    22    1
    21    22    23    1
    22    23    24   ar
    23    24    25   ar
    24    25    26   ar
    25    26    27   ar
    26    27    29    1
    27    29    30   ar
    28    30    31   ar
    29    31    32   ar
    30    32    33   ar
    31    33    34   ar
    32    27    28   ar
    33    15    16   ar
    34    16    11   ar
    35    21    17   ar
    36     9     3    1
    37    28    23   ar
    38    34    29   ar
@<TRIPOS>MOLECULE
*****
 34 38 0 0 0
SMALL
GASTEIGER

@<TRIPOS>ATOM
      1 C          62.6470   88.4995   11.5735 C.2     1  UNL1        0.2506
      2 O          62.6065   89.9989   11.5773 O.2     1  UNL1       -0.2699
      3 N          63.3182   87.7645   12.6956 N.am    1  UNL1       -0.2724
      4 C          63.3587   86.2650   12.6918 C.3     1  UNL1        0.1231
      5 C          64.0298   85.5300   13.8140 C.3     1  UNL1        0.1351
      6 C          64.0704   84.0305   13.8101 C.3     1  UNL1        0.0339
      7 O          64.6604   86.2944   14.9400 O.3     1  UNL1       -0.3527
      8 C          64.6199   87.7938   14.9439 C.3     1  UNL1        0.1621
      9 C          63.9488   88.5289   13.8217 C.3     1  UNL1        0.1096
     10 C          63.0013   84.9694    7.7770 C.3     1  UNL1        0.0310
     11 C          62.1936   85.9700    8.5492 C.ar    1  UNL1       -0.0216
     12 C          60.7552   86.2063    8.1953 C.ar    1  UNL1       -0.0026
     13 C          59.9475   87.2070    8.9674 C.ar    1  UNL1        0.0207
     14 C          60.5780   87.9714   10.0935 C.ar    1  UNL1        0.1072
     15 C          62.0164   87.7351   10.4474 C.ar    1  UNL1        0.0726
     16 C          62.8241   86.7344    9.6752 C.ar    1  UNL1        0.0018
     17 N          59.7703   88.9720   10.8656 N.ar    1  UNL1       -0.1477
     18 N          59.0220   88.7075   12.1384 N.ar    1  UNL1       -0.1447
     19 C          58.3582   89.9849   12.5600 C.ar    1  UNL1        0.1446
     20 C          58.6963   91.0389   11.5477 C.ar    1  UNL1        0.1446
     21 N          59.5690   90.4129   10.5005 N.ar    1  UNL1       -0.1447
     22 C          63.9083   90.0283   13.8256 C.3     1  UNL1        0.0487
     23 C          65.1854   90.8132   13.7711 C.ar    1  UNL1       -0.0203
     24 C          66.1420   90.7701   14.9256 C.ar    1  UNL1       -0.0042
     25 C          67.4191   91.5550   14.8712 C.ar    1  UNL1       -0.0002
     26 C          67.7395   92.3831   13.6623 C.ar    1  UNL1        0.0030
     27 C          66.7828   92.4263   12.5077 C.ar    1  UNL1        0.0355
     28 C          65.5058   91.6413   12.5622 C.ar    1  UNL1       -0.0012
     29 C          67.1032   93.2544   11.2988 C.ar    1  UNL1        0.1622
     30 N          67.8537   92.6467   10.1509 N.ar    1  UNL1       -0.2250
     31 C          68.1741   93.4748    8.9419 C.ar    1  UNL1        0.1022
     32 C          67.7440   94.9106    8.8808 C.ar    1  UNL1        0.0414
     33 C          66.9936   95.5182   10.0287 C.ar    1  UNL1        0.1022
     34 N          66.6732   94.6901   11.2376 N.ar    1  UNL1       -0.2250
@<TRIPOS>BOND
     1    10    11    1
     2    11    12   ar
     3    12    13   ar
     4    13    14   ar
     5    14    17    1
     6    17    18   ar
     7    18    19   ar
     8    19    20   ar
     9    20    21   ar
    10    14    15   ar
    11    15     1    1
    12     1     2    2
    13     1     3   am
    14     3     4    1
    15     4     5    1
    16     5     6    1
    17     5     7    1
    18     7     8    1
    19     8     9    1
    20     9    22    1
    21    22    23    1
    22    23    24   ar
    23    24    25   ar
    24    25    26   ar
    25    26    27   ar
    26    27    29    1
    27    29    30   ar
    28    30    31   ar
    29    31    32   ar
    30    32    33   ar
    31    33    34   ar
    32    27    28   ar
    33    15    16   ar
    34    16    11   ar
    35    21    17   ar
    36     9     3    1
    37    28    23   ar
    38    34    29   ar
@<TRIPOS>MOLECULE
*****
 34 38 0 0 0
SMALL
GASTEIGER

@<TRIPOS>ATOM
      1 C          63.3779   88.0149   13.1798 C.2     1  UNL1        0.2506
      2 O          63.6005   89.1113   12.1807 O.2     1  UNL1       -0.2699
      3 N          63.3172   88.3353   14.6439 N.am    1  UNL1       -0.2724
      4 C          63.0946   87.2389   15.6430 C.3     1  UNL1        0.1231
      5 C          63.0339   87.5594   17.1072 C.3     1  UNL1        0.1351
      6 C          62.8113   86.4630   18.1063 C.3     1  UNL1        0.0339
      7 O          63.1958   88.9763   17.5721 O.3     1  UNL1       -0.3527
      8 C          63.4184   90.0727   16.5730 C.3     1  UNL1        0.1621
      9 C          63.4791   89.7523   15.1089 C.3     1  UNL1        0.1096
     10 C          64.5641   82.9743   13.6101 C.3     1  UNL1        0.0310
     11 C          63.8091   84.0777   12.9300 C.ar    1  UNL1       -0.0216
     12 C          62.8924   83.7642   11.7849 C.ar    1  UNL1       -0.0026
     13 C          62.1375   84.8676   11.1048 C.ar    1  UNL1        0.0207
     14 C          62.2993   86.2845   11.5697 C.ar    1  UNL1        0.1072
     15 C          63.2160   86.5979   12.7148 C.ar    1  UNL1        0.0726
     16 C          63.9710   85.4945   13.3949 C.ar    1  UNL1        0.0018
     17 N          61.5444   87.3879   10.8896 N.ar    1  UNL1       -0.1477
     18 N          60.3805   88.1422   11.4608 N.ar    1  UNL1       -0.1447
     19 C          59.9375   89.1513   10.4431 C.ar    1  UNL1        0.1446
     20 C          60.8277   89.0205    9.2429 C.ar    1  UNL1        0.1446
     21 N          61.8208   87.9307    9.5189 N.ar    1  UNL1       -0.1447
     22 C          63.7016   90.8487   14.1098 C.3     1  UNL1        0.0487
     23 C          65.0847   91.3795   13.8744 C.ar    1  UNL1       -0.0203
     24 C          66.1734   91.1028   14.8684 C.ar    1  UNL1       -0.0042
     25 C          67.5565   91.6336   14.6330 C.ar    1  UNL1       -0.0002
     26 C          67.8508   92.4412   13.4037 C.ar    1  UNL1        0.0030
     27 C          66.7620   92.7179   12.4097 C.ar    1  UNL1        0.0355
     28 C          65.3789   92.1871   12.6450 C.ar    1  UNL1       -0.0012
     29 C          67.0562   93.5254   11.1803 C.ar    1  UNL1        0.1622
     30 N          67.7557   92.8901   10.0153 N.ar    1  UNL1       -0.2250
     31 C          68.0500   93.6976    8.7860 C.ar    1  UNL1        0.1022
     32 C          67.6448   95.1405    8.7217 C.ar    1  UNL1        0.0414
     33 C          66.9454   95.7757    9.8866 C.ar    1  UNL1        0.1022
     34 N          66.6511   94.9682   11.1160 N.ar    1  UNL1       -0.2250
@<TRIPOS>BOND
     1    10    11    1
     2    11    12   ar
     3    12    13   ar
     4    13    14   ar
     5    14    17    1
     6    17    18   ar
     7    18    19   ar
     8    19    20   ar
     9    20    21   ar
    10    14    15   ar
    11    15     1    1
    12     1     2    2
    13     1     3   am
    14     3     4    1
    15     4     5    1
    16     5     6    1
    17     5     7    1
    18     7     8    1
    19     8     9    1
    20     9    22    1
    21    22    23    1
    22    23    24   ar
    23    24    25   ar
    24    25    26   ar
    25    26    27   ar
    26    27    29    1
    27    29    30   ar
    28    30    31   ar
    29    31    32   ar
    30    32    33   ar
    31    33    34   ar
    32    27    28   ar
    33    15    16   ar
    34    16    11   ar
    35    21    17   ar
    36     9     3    1
    37    28    23   ar
    38    34    29   ar
@<TRIPOS>MOLECULE
*****
 34 38 0 0 0
SMALL
GASTEIGER

@<TRIPOS>ATOM
      1 C          63.0547   87.3854   12.2373 C.2     1  UNL1        0.2506
      2 O          63.7888   87.5703   13.5323 O.2     1  UNL1       -0.2699
      3 N          62.2936   88.5298   11.6366 N.am    1  UNL1       -0.2724
      4 C          61.5596   88.3449   10.3416 C.3     1  UNL1        0.1231
      5 C          60.7984   89.4895    9.7409 C.3     1  UNL1        0.1351
      6 C          60.0643   89.3046    8.4459 C.3     1  UNL1        0.0339
      7 O          60.7712   90.8188   10.4352 O.3     1  UNL1       -0.3527
      8 C          61.5052   91.0037   11.7302 C.3     1  UNL1        0.1621
      9 C          62.2664   89.8592   12.3309 C.3     1  UNL1        0.1096
     10 C          63.0066   84.5966    7.8532 C.3     1  UNL1        0.0310
     11 C          63.0579   84.6616    9.3509 C.ar    1  UNL1       -0.0216
     12 C          63.1363   83.3974   10.1543 C.ar    1  UNL1       -0.0026
     13 C          63.1875   83.4624   11.6520 C.ar    1  UNL1        0.0207
     14 C          63.1603   84.7917   12.3463 C.ar    1  UNL1        0.1072
     15 C          63.0819   86.0560   11.5429 C.ar    1  UNL1        0.0726
     16 C          63.0307   85.9909   10.0452 C.ar    1  UNL1        0.0018
     17 N          63.2115   84.8568   13.8440 N.ar    1  UNL1       -0.1477
     18 N          62.0645   84.6050   14.7772 N.ar    1  UNL1       -0.1447
     19 C          62.5628   84.7776   16.1815 C.ar    1  UNL1        0.1446
     20 C          64.0179   85.1362   16.1161 C.ar    1  UNL1        0.1446
     21 N          64.4188   85.1851   14.6715 N.ar    1  UNL1       -0.1447
     22 C          63.0004   90.0441   13.6259 C.3     1  UNL1        0.0487
     23 C          64.2207   90.9148   13.6787 C.ar    1  UNL1       -0.0203
     24 C          64.9274   91.1373   14.9829 C.ar    1  UNL1       -0.0042
     25 C          66.1477   92.0080   15.0357 C.ar    1  UNL1       -0.0002
     26 C          66.6613   92.6562   13.7842 C.ar    1  UNL1        0.0030
     27 C          65.9545   92.4336   12.4800 C.ar    1  UNL1        0.0355
     28 C          64.7343   91.5630   12.4272 C.ar    1  UNL1       -0.0012
     29 C          66.4681   93.0818   11.2285 C.ar    1  UNL1        0.1622
     30 N          65.6920   94.1936   10.5869 N.ar    1  UNL1       -0.2250
     31 C          66.2055   94.8417    9.3354 C.ar    1  UNL1        0.1022
     32 C          67.4952   94.3781    8.7256 C.ar    1  UNL1        0.0414
     33 C          68.2713   93.2663    9.3672 C.ar    1  UNL1        0.1022
     34 N          67.7577   92.6182   10.6187 N.ar    1  UNL1       -0.2250
@<TRIPOS>BOND
     1    10    11    1
     2    11    12   ar
     3    12    13   ar
     4    13    14   ar
     5    14    17    1
     6    17    18   ar
     7    18    19   ar
     8    19    20   ar
     9    20    21   ar
    10    14    15   ar
    11    15     1    1
    12     1     2    2
    13     1     3   am
    14     3     4    1
    15     4     5    1
    16     5     6    1
    17     5     7    1
    18     7     8    1
    19     8     9    1
    20     9    22    1
    21    22    23    1
    22    23    24   ar
    23    24    25   ar
    24    25    26   ar
    25    26    27   ar
    26    27    29    1
    27    29    30   ar
    28    30    31   ar
    29    31    32   ar
    30    32    33   ar
    31    33    34   ar
    32    27    28   ar
    33    15    16   ar
    34    16    11   ar
    35    21    17   ar
    36     9     3    1
    37    28    23   ar
    38    34    29   ar
