@<TRIPOS>MOLECULE
*****
 35 38 0 0 0
SMALL
GASTEIGER

@<TRIPOS>ATOM
      1 N          66.1200   90.6839   13.7954 N.am    1  UNL1       -0.2979
      2 C          64.8222   90.1406   14.3153 C.2     1  UNL1        0.2409
      3 O          64.2088   90.7213   15.5549 O.2     1  UNL1       -0.2733
      4 H          66.5226   90.3028   12.9818 H       1  UNL1        0.1498
      5 C          64.1376   89.0166   13.5955 C.3     1  UNL1        0.1536
      6 C          64.1412   87.5742   14.0072 C.3     1  UNL1        0.0549
      7 C          63.3351   86.8038   13.0039 C.3     1  UNL1        0.1557
      8 C          62.8333   87.7700   11.9721 C.3     1  UNL1        0.1178
      9 N          63.3293   89.1377   12.3378 N.am    1  UNL1       -0.2712
     10 C          63.0636   90.4040   11.5789 C.2     1  UNL1        0.2265
     11 C          62.2327   90.3699   10.3305 C.3     1  UNL1        0.0948
     12 O          63.6289   91.7044   12.0683 O.2     1  UNL1       -0.2748
     13 S          63.0762   85.3266   13.0281 S.O2    1  UNL1        0.0087
     14 O          64.2237   85.1410   13.9761 O.2     1  UNL1       -0.1686
     15 O          61.9286   85.5120   12.0801 O.2     1  UNL1       -0.1686
     16 C          62.8173   83.8493   13.0523 C.ar    1  UNL1        0.1057
     17 C          62.3403   83.1920   14.3135 C.ar    1  UNL1        0.0183
     18 C          62.0814   81.7147   14.3378 C.ar    1  UNL1        0.0013
     19 C          62.2996   80.8946   13.1008 C.ar    1  UNL1        0.0001
     20 C          62.7765   81.5519   11.8396 C.ar    1  UNL1        0.0013
     21 C          63.0354   83.0292   11.8154 C.ar    1  UNL1        0.0183
     22 C          66.8046   91.8080   14.5151 C.3     1  UNL1        0.1387
     23 C          68.7627   92.6381   16.0075 C.3     1  UNL1        0.0022
     24 C          67.9264   91.5161   15.4671 C.3     1  UNL1        0.0277
     25 C          66.3673   93.2239   14.2828 C.2     1  UNL1        0.2436
     26 O          65.8116   94.0328   15.4172 O.2     1  UNL1       -0.2846
     27 C          66.4858   93.8308   12.9163 C.ar    1  UNL1        0.2671
     28 N          66.9551   93.1280   11.6770 N.ar    1  UNL1       -0.2058
     29 C          66.9151   94.1100   10.5438 C.ar    1  UNL1        0.1189
     30 C          67.2647   93.9807    9.0909 C.ar    1  UNL1        0.0223
     31 C          67.1203   95.1612    8.1769 C.ar    1  UNL1        0.0018
     32 C          66.6262   96.4710    8.7157 C.ar    1  UNL1        0.0032
     33 C          66.2765   96.6002   10.1687 C.ar    1  UNL1        0.0391
     34 C          66.4210   95.4197   11.0827 C.ar    1  UNL1        0.1648
     35 O          66.1557   95.2472   12.5489 O.2     1  UNL1       -0.4324
@<TRIPOS>BOND
     1    23    24    1
     2    22    24    1
     3    22     1    1
     4     1     2   am
     5     2     3    2
     6     5     2    1
     7     5     6    1
     8     6     7    1
     9     7    13    1
    10    13    14    2
    11    13    15    2
    12    13    16    1
    13    16    17   ar
    14    17    18   ar
    15    18    19   ar
    16    19    20   ar
    17    20    21   ar
    18     7     8    1
    19     8     9    1
    20     9    10   am
    21    10    11    1
    22    10    12    2
    23    22    25    1
    24    25    26    2
    25    25    27    1
    26    27    28   ar
    27    28    29   ar
    28    29    30   ar
    29    30    31   ar
    30    31    32   ar
    31    32    33   ar
    32    33    34   ar
    33    34    35   ar
    34     9     5    1
    35    35    27   ar
    36    21    16   ar
    37    34    29   ar
    38     1     4    1
@<TRIPOS>MOLECULE
*****
 35 38 0 0 0
SMALL
GASTEIGER

@<TRIPOS>ATOM
      1 N          64.6733   87.9429   15.0553 N.am    1  UNL1       -0.2979
      2 C          64.1209   88.7382   13.9098 C.2     1  UNL1        0.2409
      3 O          63.1702   88.0983   12.9420 O.2     1  UNL1       -0.2733
      4 H          65.2973   88.3629   15.6905 H       1  UNL1        0.1498
      5 C          64.5192   90.1734   13.7320 C.3     1  UNL1        0.1536
      6 C          65.0490   90.7919   12.4724 C.3     1  UNL1        0.0549
      7 C          65.3148   92.2428   12.7446 C.3     1  UNL1        0.1557
      8 C          64.9492   92.5211   14.1724 C.3     1  UNL1        0.1178
      9 N          64.4574   91.2421   14.7828 N.am    1  UNL1       -0.2712
     10 C          63.9866   91.0633   16.1957 C.2     1  UNL1        0.2265
     11 C          63.9814   92.2305   17.1379 C.3     1  UNL1        0.0948
     12 O          63.5210   89.7173   16.6665 O.2     1  UNL1       -0.2748
     13 S          65.8519   93.2403   11.7615 S.O2    1  UNL1        0.0087
     14 O          66.6774   93.8654   12.8468 O.2     1  UNL1       -0.1686
     15 O          65.0265   92.6152   10.6762 O.2     1  UNL1       -0.1686
     16 C          66.3890   94.2378   10.7784 C.ar    1  UNL1        0.1057
     17 C          66.2755   95.7064   11.0622 C.ar    1  UNL1        0.0183
     18 C          66.8127   96.7039   10.0791 C.ar    1  UNL1        0.0013
     19 C          67.4633   96.2329    8.8122 C.ar    1  UNL1        0.0001
     20 C          67.5767   94.7643    8.5285 C.ar    1  UNL1        0.0013
     21 C          67.0396   93.7668    9.5116 C.ar    1  UNL1        0.0183
     22 C          64.2751   86.5077   15.2331 C.3     1  UNL1        0.1387
     23 C          62.8483   86.3496   17.3986 C.3     1  UNL1        0.0022
     24 C          62.9837   86.1668   15.9159 C.3     1  UNL1        0.0277
     25 C          65.1681   85.4134   14.7281 C.2     1  UNL1        0.2436
     26 O          66.6565   85.5356   14.8680 O.2     1  UNL1       -0.2846
     27 C          64.5727   84.1971   14.0831 C.ar    1  UNL1        0.2671
     28 N          64.0143   83.0033   14.7994 N.ar    1  UNL1       -0.2058
     29 C          63.5276   82.0294   13.7676 C.ar    1  UNL1        0.1189
     30 C          62.8832   80.6801   13.8860 C.ar    1  UNL1        0.0223
     31 C          62.4964   79.9227   12.6505 C.ar    1  UNL1        0.0018
     32 C          62.7541   80.5145   11.2965 C.ar    1  UNL1        0.0032
     33 C          63.3985   81.8638   11.1780 C.ar    1  UNL1        0.0391
     34 C          63.7853   82.6212   12.4136 C.ar    1  UNL1        0.1648
     35 O          64.4312   83.9609   12.6086 O.2     1  UNL1       -0.4324
@<TRIPOS>BOND
     1    23    24    1
     2    22    24    1
     3    22     1    1
     4     1     2   am
     5     2     3    2
     6     5     2    1
     7     5     6    1
     8     6     7    1
     9     7    13    1
    10    13    14    2
    11    13    15    2
    12    13    16    1
    13    16    17   ar
    14    17    18   ar
    15    18    19   ar
    16    19    20   ar
    17    20    21   ar
    18     7     8    1
    19     8     9    1
    20     9    10   am
    21    10    11    1
    22    10    12    2
    23    22    25    1
    24    25    26    2
    25    25    27    1
    26    27    28   ar
    27    28    29   ar
    28    29    30   ar
    29    30    31   ar
    30    31    32   ar
    31    32    33   ar
    32    33    34   ar
    33    34    35   ar
    34     9     5    1
    35    35    27   ar
    36    21    16   ar
    37    34    29   ar
    38     1     4    1
@<TRIPOS>MOLECULE
*****
 35 38 0 0 0
SMALL
GASTEIGER

@<TRIPOS>ATOM
      1 N          62.2570   88.7486   12.2228 N.am    1  UNL1       -0.2979
      2 C          62.5128   87.6280   11.2590 C.2     1  UNL1        0.2409
      3 O          62.4401   87.8780    9.7818 O.2     1  UNL1       -0.2733
      4 H          62.3047   88.5845   13.1923 H       1  UNL1        0.1498
      5 C          62.8412   86.2574   11.7725 C.3     1  UNL1        0.1536
      6 C          62.5305   84.9607   11.0856 C.3     1  UNL1        0.0549
      7 C          63.0353   83.8448   11.9516 C.3     1  UNL1        0.1557
      8 C          63.6578   84.4519   13.1738 C.3     1  UNL1        0.1178
      9 N          63.5379   85.9430   13.0632 N.am    1  UNL1       -0.2712
     10 C          64.0286   86.9439   14.0669 C.2     1  UNL1        0.2265
     11 C          64.7110   86.4780   15.3187 C.3     1  UNL1        0.0948
     12 O          63.8368   88.4108   13.8187 O.2     1  UNL1       -0.2748
     13 S          62.9350   82.3792   11.6486 S.O2    1  UNL1        0.0087
     14 O          63.6413   82.6006   10.3439 O.2     1  UNL1       -0.1686
     15 O          62.2288   82.1577   12.9533 O.2     1  UNL1       -0.1686
     16 C          62.8348   80.9135   11.3456 C.ar    1  UNL1        0.1057
     17 C          62.5882   79.9336   12.4543 C.ar    1  UNL1        0.0183
     18 C          62.4879   78.4679   12.1513 C.ar    1  UNL1        0.0013
     19 C          62.6342   77.9822   10.7396 C.ar    1  UNL1        0.0001
     20 C          62.8808   78.9621    9.6310 C.ar    1  UNL1        0.0013
     21 C          62.9810   80.4278    9.9340 C.ar    1  UNL1        0.0183
     22 C          61.9286   90.1192   11.7093 C.3     1  UNL1        0.1387
     23 C          59.3956   89.6290   12.0152 C.3     1  UNL1        0.0022
     24 C          60.4970   90.5448   11.5699 C.3     1  UNL1        0.0277
     25 C          63.0318   91.0642   11.3352 C.2     1  UNL1        0.2436
     26 O          63.0820   91.6496    9.9551 O.2     1  UNL1       -0.2846
     27 C          64.0847   91.4238   12.3412 C.ar    1  UNL1        0.2671
     28 N          63.8759   91.5811   13.8182 N.ar    1  UNL1       -0.2058
     29 C          65.1934   91.9438   14.4367 C.ar    1  UNL1        0.1189
     30 C          65.5937   92.2217   15.8553 C.ar    1  UNL1        0.0223
     31 C          67.0171   92.5666   16.1791 C.ar    1  UNL1        0.0018
     32 C          68.0403   92.6334   15.0842 C.ar    1  UNL1        0.0032
     33 C          67.6401   92.3554   13.6656 C.ar    1  UNL1        0.0391
     34 C          66.2166   92.0106   13.3419 C.ar    1  UNL1        0.1648
     35 O          65.5314   91.6893   12.0468 O.2     1  UNL1       -0.4324
@<TRIPOS>BOND
     1    23    24    1
     2    22    24    1
     3    22     1    1
     4     1     2   am
     5     2     3    2
     6     5     2    1
     7     5     6    1
     8     6     7    1
     9     7    13    1
    10    13    14    2
    11    13    15    2
    12    13    16    1
    13    16    17   ar
    14    17    18   ar
    15    18    19   ar
    16    19    20   ar
    17    20    21   ar
    18     7     8    1
    19     8     9    1
    20     9    10   am
    21    10    11    1
    22    10    12    2
    23    22    25    1
    24    25    26    2
    25    25    27    1
    26    27    28   ar
    27    28    29   ar
    28    29    30   ar
    29    30    31   ar
    30    31    32   ar
    31    32    33   ar
    32    33    34   ar
    33    34    35   ar
    34     9     5    1
    35    35    27   ar
    36    21    16   ar
    37    34    29   ar
    38     1     4    1
@<TRIPOS>MOLECULE
*****
 35 38 0 0 0
SMALL
GASTEIGER

@<TRIPOS>ATOM
      1 N          64.3018   88.1106   13.7188 N.am    1  UNL1       -0.2979
      2 C          63.5663   89.4067   13.8891 C.2     1  UNL1        0.2409
      3 O          62.1178   89.4014   14.2789 O.2     1  UNL1       -0.2733
      4 H          65.2525   88.1141   13.4630 H       1  UNL1        0.1498
      5 C          64.2791   90.7081   13.6697 C.3     1  UNL1        0.1536
      6 C          64.6824   91.2797   12.3428 C.3     1  UNL1        0.0549
      7 C          65.3664   92.5913   12.5917 C.3     1  UNL1        0.1557
      8 C          65.3858   92.8303   14.0723 C.3     1  UNL1        0.1178
      9 N          64.7138   91.6664   14.7387 N.am    1  UNL1       -0.2712
     10 C          64.5119   91.4916   16.2147 C.2     1  UNL1        0.2265
     11 C          65.0033   92.5401   17.1682 C.3     1  UNL1        0.0948
     12 O          63.8187   90.2683   16.7372 O.2     1  UNL1       -0.2748
     13 S          65.9317   93.5036   11.5439 S.O2    1  UNL1        0.0087
     14 O          66.5958   94.3199   12.6129 O.2     1  UNL1       -0.1686
     15 O          65.2676   92.6874   10.4748 O.2     1  UNL1       -0.1686
     16 C          66.4970   94.4160   10.4960 C.ar    1  UNL1        0.1057
     17 C          66.4782   95.9012   10.7055 C.ar    1  UNL1        0.0183
     18 C          67.0436   96.8136    9.6576 C.ar    1  UNL1        0.0013
     19 C          67.6276   96.2407    8.4003 C.ar    1  UNL1        0.0001
     20 C          67.6464   94.7556    8.1909 C.ar    1  UNL1        0.0013
     21 C          67.0810   93.8432    9.2387 C.ar    1  UNL1        0.0183
     22 C          63.5890   86.8091   13.9383 C.3     1  UNL1        0.1387
     23 C          64.0068   85.2859   16.0011 C.3     1  UNL1        0.0022
     24 C          63.2276   86.3771   15.3285 C.3     1  UNL1        0.0277
     25 C          63.2375   85.9398   12.7675 C.2     1  UNL1        0.2436
     26 O          63.7192   84.5203   12.7161 O.2     1  UNL1       -0.2846
     27 C          62.4042   86.4901   11.6482 C.ar    1  UNL1        0.2671
     28 N          61.6528   85.6846   10.6301 N.ar    1  UNL1       -0.2058
     29 C          60.9602   86.6391    9.7031 C.ar    1  UNL1        0.1189
     30 C          60.0769   86.4180    8.5111 C.ar    1  UNL1        0.0223
     31 C          59.5171   87.5922    7.7644 C.ar    1  UNL1        0.0018
     32 C          59.8405   88.9876    8.2096 C.ar    1  UNL1        0.0032
     33 C          60.7238   89.2088    9.4015 C.ar    1  UNL1        0.0391
     34 C          61.2837   88.0346   10.1483 C.ar    1  UNL1        0.1648
     35 O          62.1761   87.9424   11.3504 O.2     1  UNL1       -0.4324
@<TRIPOS>BOND
     1    23    24    1
     2    22    24    1
     3    22     1    1
     4     1     2   am
     5     2     3    2
     6     5     2    1
     7     5     6    1
     8     6     7    1
     9     7    13    1
    10    13    14    2
    11    13    15    2
    12    13    16    1
    13    16    17   ar
    14    17    18   ar
    15    18    19   ar
    16    19    20   ar
    17    20    21   ar
    18     7     8    1
    19     8     9    1
    20     9    10   am
    21    10    11    1
    22    10    12    2
    23    22    25    1
    24    25    26    2
    25    25    27    1
    26    27    28   ar
    27    28    29   ar
    28    29    30   ar
    29    30    31   ar
    30    31    32   ar
    31    32    33   ar
    32    33    34   ar
    33    34    35   ar
    34     9     5    1
    35    35    27   ar
    36    21    16   ar
    37    34    29   ar
    38     1     4    1
@<TRIPOS>MOLECULE
*****
 35 38 0 0 0
SMALL
GASTEIGER

@<TRIPOS>ATOM
      1 N          65.9352   90.9338   13.5169 N.am    1  UNL1       -0.2979
      2 C          64.4923   90.6676   13.8281 C.2     1  UNL1        0.2409
      3 O          63.8126   91.4187   14.9344 O.2     1  UNL1       -0.2733
      4 H          66.3813   90.4408   12.7908 H       1  UNL1        0.1498
      5 C          63.7289   89.6501   13.0331 C.3     1  UNL1        0.1536
      6 C          62.8794   89.9287   11.8286 C.3     1  UNL1        0.0549
      7 C          62.3065   88.6262   11.3540 C.3     1  UNL1        0.1557
      8 C          62.8019   87.5426   12.2652 C.3     1  UNL1        0.1178
      9 N          63.6810   88.1753   13.3030 N.am    1  UNL1       -0.2712
     10 C          64.3880   87.4591   14.4153 C.2     1  UNL1        0.2265
     11 C          64.2453   85.9730   14.5604 C.3     1  UNL1        0.0948
     12 O          65.2377   88.2290   15.3824 O.2     1  UNL1       -0.2748
     13 S          61.3978   88.4401   10.1753 S.O2    1  UNL1        0.0087
     14 O          60.5422   89.5746   10.6558 O.2     1  UNL1       -0.1686
     15 O          62.2534   87.3056    9.6948 O.2     1  UNL1       -0.1686
     16 C          60.4890   88.2539    8.9965 C.ar    1  UNL1        0.1057
     17 C          60.1463   89.4233    8.1217 C.ar    1  UNL1        0.0183
     18 C          59.2375   89.2371    6.9429 C.ar    1  UNL1        0.0013
     19 C          58.6715   87.8816    6.6390 C.ar    1  UNL1        0.0001
     20 C          59.0143   86.7123    7.5138 C.ar    1  UNL1        0.0013
     21 C          59.9230   86.8985    8.6926 C.ar    1  UNL1        0.0183
     22 C          66.6986   91.9513   14.3120 C.3     1  UNL1        0.1387
     23 C          68.7103   92.4859   15.8668 C.3     1  UNL1        0.0022
     24 C          67.7138   91.5058   15.3224 C.3     1  UNL1        0.0277
     25 C          66.4468   93.4142   14.0966 C.2     1  UNL1        0.2436
     26 O          66.0906   94.2930   15.2589 O.2     1  UNL1       -0.2846
     27 C          66.5512   93.9984   12.7190 C.ar    1  UNL1        0.2671
     28 N          67.0958   93.3043   11.5059 N.ar    1  UNL1       -0.2058
     29 C          67.0105   94.2562   10.3497 C.ar    1  UNL1        0.1189
     30 C          67.3995   94.1208    8.9074 C.ar    1  UNL1        0.0223
     31 C          67.1913   95.2680    7.9637 C.ar    1  UNL1        0.0018
     32 C          66.5941   96.5504    8.4623 C.ar    1  UNL1        0.0032
     33 C          66.2051   96.6858    9.9046 C.ar    1  UNL1        0.0391
     34 C          66.4133   95.5386   10.8483 C.ar    1  UNL1        0.1648
     35 O          66.1294   95.3793   12.3126 O.2     1  UNL1       -0.4324
@<TRIPOS>BOND
     1    23    24    1
     2    22    24    1
     3    22     1    1
     4     1     2   am
     5     2     3    2
     6     5     2    1
     7     5     6    1
     8     6     7    1
     9     7    13    1
    10    13    14    2
    11    13    15    2
    12    13    16    1
    13    16    17   ar
    14    17    18   ar
    15    18    19   ar
    16    19    20   ar
    17    20    21   ar
    18     7     8    1
    19     8     9    1
    20     9    10   am
    21    10    11    1
    22    10    12    2
    23    22    25    1
    24    25    26    2
    25    25    27    1
    26    27    28   ar
    27    28    29   ar
    28    29    30   ar
    29    30    31   ar
    30    31    32   ar
    31    32    33   ar
    32    33    34   ar
    33    34    35   ar
    34     9     5    1
    35    35    27   ar
    36    21    16   ar
    37    34    29   ar
    38     1     4    1
@<TRIPOS>MOLECULE
*****
 35 38 0 0 0
SMALL
GASTEIGER

@<TRIPOS>ATOM
      1 N          62.1674   87.2956    9.3432 N.am    1  UNL1       -0.2979
      2 C          61.7757   87.4592   10.7818 C.2     1  UNL1        0.2409
      3 O          60.9814   86.3885   11.4693 O.2     1  UNL1       -0.2733
      4 H          62.6888   87.9983    8.8920 H       1  UNL1        0.1498
      5 C          62.1783   88.6936   11.5331 C.3     1  UNL1        0.1536
      6 C          63.5102   88.9381   12.1781 C.3     1  UNL1        0.0549
      7 C          63.4747   90.2958   12.8148 C.3     1  UNL1        0.1557
      8 C          62.1208   90.8904   12.5632 C.3     1  UNL1        0.1178
      9 N          61.3194   89.9002   11.7710 N.am    1  UNL1       -0.2712
     10 C          59.9074   90.0843   11.2997 C.2     1  UNL1        0.2265
     11 C          59.1706   91.3521   11.6154 C.3     1  UNL1        0.0948
     12 O          59.2321   89.0005   10.5126 O.2     1  UNL1       -0.2748
     13 S          64.5961   90.9449   13.5703 S.O2    1  UNL1        0.0087
     14 O          64.4699   92.1661   12.7085 O.2     1  UNL1       -0.1686
     15 O          64.7223   89.7237   14.4322 O.2     1  UNL1       -0.1686
     16 C          65.7176   91.5940   14.3259 C.ar    1  UNL1        0.1057
     17 C          67.0688   91.7334   13.6895 C.ar    1  UNL1        0.0183
     18 C          68.1903   92.3825   14.4451 C.ar    1  UNL1        0.0013
     19 C          67.9606   92.8922   15.8371 C.ar    1  UNL1        0.0001
     20 C          66.6095   92.7528   16.4734 C.ar    1  UNL1        0.0013
     21 C          65.4880   92.1036   15.7179 C.ar    1  UNL1        0.0183
     22 C          61.7649   86.0612    8.5920 C.3     1  UNL1        0.1387
     23 C          59.6081   87.2585    7.7764 C.3     1  UNL1        0.0022
     24 C          60.4666   86.0301    7.8412 C.3     1  UNL1        0.0277
     25 C          62.6605   84.8580    8.5915 C.2     1  UNL1        0.2436
     26 O          63.2593   84.3692    7.3060 O.2     1  UNL1       -0.2846
     27 C          62.9574   84.1435    9.8765 C.ar    1  UNL1        0.2671
     28 N          62.8388   82.6668   10.1121 N.ar    1  UNL1       -0.2058
     29 C          63.2331   82.3909   11.5328 C.ar    1  UNL1        0.1189
     30 C          63.3091   81.1191   12.3244 C.ar    1  UNL1        0.0223
     31 C          63.7473   81.1534   13.7585 C.ar    1  UNL1        0.0018
     32 C          64.1096   82.4595   14.4010 C.ar    1  UNL1        0.0032
     33 C          64.0337   83.7313   13.6094 C.ar    1  UNL1        0.0391
     34 C          63.5954   83.6970   12.1753 C.ar    1  UNL1        0.1648
     35 O          63.4250   84.7801   11.1517 O.2     1  UNL1       -0.4324
@<TRIPOS>BOND
     1    23    24    1
     2    22    24    1
     3    22     1    1
     4     1     2   am
     5     2     3    2
     6     5     2    1
     7     5     6    1
     8     6     7    1
     9     7    13    1
    10    13    14    2
    11    13    15    2
    12    13    16    1
    13    16    17   ar
    14    17    18   ar
    15    18    19   ar
    16    19    20   ar
    17    20    21   ar
    18     7     8    1
    19     8     9    1
    20     9    10   am
    21    10    11    1
    22    10    12    2
    23    22    25    1
    24    25    26    2
    25    25    27    1
    26    27    28   ar
    27    28    29   ar
    28    29    30   ar
    29    30    31   ar
    30    31    32   ar
    31    32    33   ar
    32    33    34   ar
    33    34    35   ar
    34     9     5    1
    35    35    27   ar
    36    21    16   ar
    37    34    29   ar
    38     1     4    1
@<TRIPOS>MOLECULE
*****
 35 38 0 0 0
SMALL
GASTEIGER

@<TRIPOS>ATOM
      1 N          64.9699   89.2956   14.2496 N.am    1  UNL1       -0.2979
      2 C          63.6259   88.8056   14.7005 C.2     1  UNL1        0.2409
      3 O          62.5104   89.7816   14.9310 O.2     1  UNL1       -0.2733
      4 H          65.7021   88.6550   14.0983 H       1  UNL1        0.1498
      5 C          63.3973   87.3396   14.9210 C.3     1  UNL1        0.1536
      6 C          63.3928   86.2786   13.8607 C.3     1  UNL1        0.0549
      7 C          63.1258   84.9605   14.5249 C.3     1  UNL1        0.1557
      8 C          62.9653   85.2068   15.9958 C.3     1  UNL1        0.1178
      9 N          63.1331   86.6772   16.2407 N.am    1  UNL1       -0.2712
     10 C          63.0510   87.3645   17.5714 C.2     1  UNL1        0.2265
     11 C          62.7788   86.5665   18.8121 C.3     1  UNL1        0.0948
     12 O          63.2413   88.8496   17.6616 O.2     1  UNL1       -0.2748
     13 S          63.0352   83.6298   13.8388 S.O2    1  UNL1        0.0087
     14 O          63.2135   82.9377   15.1576 O.2     1  UNL1       -0.1686
     15 O          62.8570   84.3219   12.5199 O.2     1  UNL1       -0.1686
     16 C          62.9447   82.2990   13.1526 C.ar    1  UNL1        0.1057
     17 C          62.5597   81.0773   13.9333 C.ar    1  UNL1        0.0183
     18 C          62.4691   79.7465   13.2471 C.ar    1  UNL1        0.0013
     19 C          62.7635   79.6375   11.7802 C.ar    1  UNL1        0.0001
     20 C          63.1484   80.8591   10.9996 C.ar    1  UNL1        0.0013
     21 C          63.2390   82.1899   11.6858 C.ar    1  UNL1        0.0183
     22 C          65.1985   90.7617   14.0291 C.3     1  UNL1        0.1387
     23 C          67.4886   91.6957   14.8251 C.3     1  UNL1        0.0022
     24 C          66.0076   91.5512   15.0150 C.3     1  UNL1        0.0277
     25 C          64.6181   91.4381   12.8227 C.2     1  UNL1        0.2436
     26 O          65.0208   92.8428   12.4841 O.2     1  UNL1       -0.2846
     27 C          63.6349   90.7099   11.9549 C.ar    1  UNL1        0.2671
     28 N          62.5606   91.3402   11.1191 N.ar    1  UNL1       -0.2058
     29 C          61.8151   90.2434   10.4182 C.ar    1  UNL1        0.1189
     30 C          60.6569   90.2669    9.4654 C.ar    1  UNL1        0.0223
     31 C          60.1122   88.9822    8.9152 C.ar    1  UNL1        0.0018
     32 C          60.7258   87.6739    9.3178 C.ar    1  UNL1        0.0032
     33 C          61.8840   87.6505   10.2707 C.ar    1  UNL1        0.0391
     34 C          62.4286   88.9352   10.8208 C.ar    1  UNL1        0.1648
     35 O          63.5533   89.2235   11.7706 O.2     1  UNL1       -0.4324
@<TRIPOS>BOND
     1    23    24    1
     2    22    24    1
     3    22     1    1
     4     1     2   am
     5     2     3    2
     6     5     2    1
     7     5     6    1
     8     6     7    1
     9     7    13    1
    10    13    14    2
    11    13    15    2
    12    13    16    1
    13    16    17   ar
    14    17    18   ar
    15    18    19   ar
    16    19    20   ar
    17    20    21   ar
    18     7     8    1
    19     8     9    1
    20     9    10   am
    21    10    11    1
    22    10    12    2
    23    22    25    1
    24    25    26    2
    25    25    27    1
    26    27    28   ar
    27    28    29   ar
    28    29    30   ar
    29    30    31   ar
    30    31    32   ar
    31    32    33   ar
    32    33    34   ar
    33    34    35   ar
    34     9     5    1
    35    35    27   ar
    36    21    16   ar
    37    34    29   ar
    38     1     4    1
@<TRIPOS>MOLECULE
*****
 35 38 0 0 0
SMALL
GASTEIGER

@<TRIPOS>ATOM
      1 N          62.2287   88.3665    9.7075 N.am    1  UNL1       -0.2979
      2 C          62.1168   89.0708   11.0271 C.2     1  UNL1        0.2409
      3 O          60.9629   88.7760   11.9391 O.2     1  UNL1       -0.2733
      4 H          62.9860   88.5600    9.1089 H       1  UNL1        0.1498
      5 C          63.1586   90.0701   11.4347 C.3     1  UNL1        0.1536
      6 C          63.6383   91.2291   10.6122 C.3     1  UNL1        0.0549
      7 C          64.6798   91.9610   11.4055 C.3     1  UNL1        0.1557
      8 C          64.8439   91.2543   12.7184 C.3     1  UNL1        0.1178
      9 N          63.9038   90.0856   12.7364 N.am    1  UNL1       -0.2712
     10 C          63.7379   89.1047   13.8591 C.2     1  UNL1        0.2265
     11 C          64.5570   89.2481   15.1075 C.3     1  UNL1        0.0948
     12 O          62.7529   87.9804   13.7333 O.2     1  UNL1       -0.2748
     13 S          65.4262   93.1847   10.9636 S.O2    1  UNL1        0.0087
     14 O          64.5145   93.3131    9.7794 O.2     1  UNL1       -0.1686
     15 O          66.3380   93.0563   12.1478 O.2     1  UNL1       -0.1686
     16 C          66.1727   94.4085   10.5217 C.ar    1  UNL1        0.1057
     17 C          66.1900   95.6310   11.3907 C.ar    1  UNL1        0.0183
     18 C          66.9364   96.8548   10.9488 C.ar    1  UNL1        0.0013
     19 C          67.6655   96.8560    9.6379 C.ar    1  UNL1        0.0001
     20 C          67.6481   95.6334    8.7689 C.ar    1  UNL1        0.0013
     21 C          66.9017   94.4097    9.2108 C.ar    1  UNL1        0.0183
     22 C          61.1868   87.3673    9.2998 C.3     1  UNL1        0.1387
     23 C          59.4853   88.4739    7.6780 C.3     1  UNL1        0.0022
     24 C          59.7905   87.8221    8.9941 C.3     1  UNL1        0.0277
     25 C          61.5413   85.9134    9.1980 C.2     1  UNL1        0.2436
     26 O          61.4045   85.1982    7.8866 O.2     1  UNL1       -0.2846
     27 C          62.0324   85.1746   10.4075 C.ar    1  UNL1        0.2671
     28 N          62.7573   83.8614   10.4045 N.ar    1  UNL1       -0.2058
     29 C          63.0578   83.4945   11.8276 C.ar    1  UNL1        0.1189
     30 C          63.7527   82.3115   12.4338 C.ar    1  UNL1        0.0223
     31 C          63.9085   82.2150   13.9225 C.ar    1  UNL1        0.0018
     32 C          63.3693   83.3014   14.8051 C.ar    1  UNL1        0.0032
     33 C          62.6743   84.4844   14.1989 C.ar    1  UNL1        0.0391
     34 C          62.5186   84.5810   12.7101 C.ar    1  UNL1        0.1648
     35 O          61.8849   85.6193   11.8325 O.2     1  UNL1       -0.4324
@<TRIPOS>BOND
     1    23    24    1
     2    22    24    1
     3    22     1    1
     4     1     2   am
     5     2     3    2
     6     5     2    1
     7     5     6    1
     8     6     7    1
     9     7    13    1
    10    13    14    2
    11    13    15    2
    12    13    16    1
    13    16    17   ar
    14    17    18   ar
    15    18    19   ar
    16    19    20   ar
    17    20    21   ar
    18     7     8    1
    19     8     9    1
    20     9    10   am
    21    10    11    1
    22    10    12    2
    23    22    25    1
    24    25    26    2
    25    25    27    1
    26    27    28   ar
    27    28    29   ar
    28    29    30   ar
    29    30    31   ar
    30    31    32   ar
    31    32    33   ar
    32    33    34   ar
    33    34    35   ar
    34     9     5    1
    35    35    27   ar
    36    21    16   ar
    37    34    29   ar
    38     1     4    1
@<TRIPOS>MOLECULE
*****
 35 38 0 0 0
SMALL
GASTEIGER

@<TRIPOS>ATOM
      1 N          64.2463   89.1292   13.0548 N.am    1  UNL1       -0.2979
      2 C          63.0889   88.2370   12.7166 C.2     1  UNL1        0.2409
      3 O          61.8848   88.8012   12.0224 O.2     1  UNL1       -0.2733
      4 H          65.0366   88.7588   13.5104 H       1  UNL1        0.1498
      5 C          63.1355   86.7805   13.0725 C.3     1  UNL1        0.1536
      6 C          62.9981   85.6341   12.1151 C.3     1  UNL1        0.0549
      7 C          63.1054   84.3599   12.8993 C.3     1  UNL1        0.1557
      8 C          63.3091   84.7189   14.3414 C.3     1  UNL1        0.1178
      9 N          63.3278   86.2150   14.4485 N.am    1  UNL1       -0.2712
     10 C          63.5071   87.0065   15.7100 C.2     1  UNL1        0.2265
     11 C          63.6897   86.2988   17.0198 C.3     1  UNL1        0.0948
     12 O          63.5039   88.5058   15.6616 O.2     1  UNL1       -0.2748
     13 S          63.0234   82.9707   12.3397 S.O2    1  UNL1        0.0087
     14 O          63.6620   83.4452   11.0681 O.2     1  UNL1       -0.1686
     15 O          62.3848   82.4961   13.6113 O.2     1  UNL1       -0.1686
     16 C          62.9413   81.5814   11.7801 C.ar    1  UNL1        0.1057
     17 C          63.1776   81.3469   10.3174 C.ar    1  UNL1        0.0183
     18 C          63.0956   79.9576    9.7578 C.ar    1  UNL1        0.0013
     19 C          62.7772   78.8028   10.6608 C.ar    1  UNL1        0.0001
     20 C          62.5410   79.0374   12.1234 C.ar    1  UNL1        0.0013
     21 C          62.6230   80.4267   12.6830 C.ar    1  UNL1        0.0183
     22 C          64.1997   90.5856   12.6988 C.3     1  UNL1        0.1387
     23 C          63.2186   91.1907   10.3704 C.3     1  UNL1        0.0022
     24 C          63.0743   91.1174   11.8617 C.3     1  UNL1        0.0277
     25 C          65.2784   91.5102   13.1799 C.2     1  UNL1        0.2436
     26 O          65.9015   91.2984   14.5278 O.2     1  UNL1       -0.2846
     27 C          65.7339   92.6465   12.3132 C.ar    1  UNL1        0.2671
     28 N          66.3900   92.5228   10.9699 N.ar    1  UNL1       -0.2058
     29 C          66.6750   93.9059   10.4640 C.ar    1  UNL1        0.1189
     30 C          67.3094   94.4006    9.1981 C.ar    1  UNL1        0.0223
     31 C          67.4640   95.8739    8.9628 C.ar    1  UNL1        0.0018
     32 C          66.9841   96.8525    9.9934 C.ar    1  UNL1        0.0032
     33 C          66.3496   96.3577   11.2593 C.ar    1  UNL1        0.0391
     34 C          66.1950   94.8844   11.4946 C.ar    1  UNL1        0.1648
     35 O          65.6135   94.1060   12.6374 O.2     1  UNL1       -0.4324
@<TRIPOS>BOND
     1    23    24    1
     2    22    24    1
     3    22     1    1
     4     1     2   am
     5     2     3    2
     6     5     2    1
     7     5     6    1
     8     6     7    1
     9     7    13    1
    10    13    14    2
    11    13    15    2
    12    13    16    1
    13    16    17   ar
    14    17    18   ar
    15    18    19   ar
    16    19    20   ar
    17    20    21   ar
    18     7     8    1
    19     8     9    1
    20     9    10   am
    21    10    11    1
    22    10    12    2
    23    22    25    1
    24    25    26    2
    25    25    27    1
    26    27    28   ar
    27    28    29   ar
    28    29    30   ar
    29    30    31   ar
    30    31    32   ar
    31    32    33   ar
    32    33    34   ar
    33    34    35   ar
    34     9     5    1
    35    35    27   ar
    36    21    16   ar
    37    34    29   ar
    38     1     4    1
