@<TRIPOS>MOLECULE
*****
 48 52 0 0 0
SMALL
GASTEIGER

@<TRIPOS>ATOM
      1 N          62.5439   87.9660   12.2630 N.3     1  UNL1       -0.2660
      2 C          63.8335   87.5822   12.9260 C.3     1  UNL1        0.0926
      3 C          64.1346   88.0619   14.3149 C.3     1  UNL1        0.0950
      4 N          64.3782   89.5201   14.5684 N.am    1  UNL1       -0.2706
      5 C          63.4681   90.2846   15.4834 C.2     1  UNL1        0.4020
      6 O          62.3144   89.5909   16.1449 O.2     1  UNL1       -0.2264
      7 H          65.1355   89.9754   14.1342 H       1  UNL1        0.1527
      8 O          63.7118   91.7429   15.7369 O.3     1  UNL1       -0.4274
      9 C          64.9771   92.1860   16.4095 C.3     1  UNL1        0.2621
     10 C          66.2600   92.2386   15.6341 C.ar    1  UNL1        0.1323
     11 N          66.5071   91.6100   14.2947 N.ar    1  UNL1       -0.2374
     12 C          67.9209   91.9120   13.8947 C.ar    1  UNL1        0.1062
     13 C          68.5476   92.7272   14.9868 C.ar    1  UNL1        0.0573
     14 S          67.5212   92.9291   16.0619 S.2     1  UNL1       -0.0666
     15 C          64.1921   87.0834   15.4505 C.3     1  UNL1        0.0474
     16 C          63.9985   85.6191   15.1892 C.ar    1  UNL1       -0.0205
     17 C          65.1078   84.8125   14.5817 C.ar    1  UNL1       -0.0042
     18 C          64.9142   83.3482   14.3205 C.ar    1  UNL1       -0.0003
     19 C          63.6113   82.6905   14.6668 C.ar    1  UNL1       -0.0000
     20 C          62.5021   83.4970   15.2742 C.ar    1  UNL1       -0.0003
     21 C          62.6956   84.9614   15.5355 C.ar    1  UNL1       -0.0042
     22 C          61.7133   86.9221   11.5774 C.3     1  UNL1        0.1008
     23 C          62.3774   85.7543   10.9100 C.ar    1  UNL1        0.0130
     24 C          62.7282   84.5340   11.7086 C.ar    1  UNL1        0.0002
     25 C          63.3923   83.3663   11.0412 C.ar    1  UNL1        0.0204
     26 C          63.7056   83.4190    9.5753 C.ar    1  UNL1        0.0989
     27 N          63.3548   84.6393    8.7767 N.ar    1  UNL1       -0.2426
     28 C          62.6907   85.8070    9.4440 C.ar    1  UNL1        0.0959
     29 C          62.0849   89.3939   12.2857 C.3     1  UNL1        0.0926
     30 C          61.9227   90.1500   11.0004 C.3     1  UNL1        0.0950
     31 O          63.8036   91.9101   12.5381 O.2     1  UNL1       -0.2264
     32 C          64.0632   91.6199   11.0895 C.2     1  UNL1        0.4020
     33 N          63.1228   90.7399   10.3207 N.am    1  UNL1       -0.2706
     34 H          63.2931   90.5495    9.3699 H       1  UNL1        0.1527
     35 O          65.2632   92.2098   10.4098 O.3     1  UNL1       -0.4291
     36 C          66.0431   93.3022   11.0794 C.3     1  UNL1        0.2447
     37 C          66.5364   94.4706   10.2787 C.ar    1  UNL1        0.0714
     38 C          67.3910   94.3983    9.0480 C.ar    1  UNL1        0.1053
     39 N          67.6446   95.7996    8.5767 N.ar    1  UNL1       -0.2350
     40 C          66.9467   96.7380    9.5161 C.ar    1  UNL1        0.1343
     41 S          66.2618   95.9166   10.5680 S.2     1  UNL1       -0.0652
     42 C          60.5605   90.3163   10.3948 C.3     1  UNL1        0.0474
     43 C          60.0711   89.3374    9.3691 C.ar    1  UNL1       -0.0205
     44 C          59.7452   87.9296    9.7713 C.ar    1  UNL1       -0.0042
     45 C          59.2559   86.9507    8.7455 C.ar    1  UNL1       -0.0003
     46 C          59.0924   87.3796    7.3175 C.ar    1  UNL1       -0.0000
     47 C          59.4183   88.7874    6.9153 C.ar    1  UNL1       -0.0003
     48 C          59.9076   89.7663    7.9410 C.ar    1  UNL1       -0.0042
@<TRIPOS>BOND
     1    31    32    2
     2    32    33   am
     3    33    30    1
     4    30    42    1
     5    42    43    1
     6    43    44   ar
     7    44    45   ar
     8    45    46   ar
     9    46    47   ar
    10    47    48   ar
    11    30    29    1
    12    29     1    1
    13     1    22    1
    14    22    23    1
    15    23    24   ar
    16    24    25   ar
    17    25    26   ar
    18    26    27   ar
    19    27    28   ar
    20     1     2    1
    21     3     2    1
    22     3    15    1
    23    15    16    1
    24    16    17   ar
    25    17    18   ar
    26    18    19   ar
    27    19    20   ar
    28    20    21   ar
    29     3     4    1
    30     4     5   am
    31     5     6    2
    32     5     8    1
    33     8     9    1
    34     9    10    1
    35    10    11   ar
    36    11    12   ar
    37    12    13   ar
    38    13    14   ar
    39    32    35    1
    40    35    36    1
    41    36    37    1
    42    37    38   ar
    43    38    39   ar
    44    39    40   ar
    45    40    41   ar
    46    48    43   ar
    47    28    23   ar
    48    21    16   ar
    49    14    10   ar
    50    41    37   ar
    51    33    34    1
    52     4     7    1
@<TRIPOS>MOLECULE
*****
 48 52 0 0 0
SMALL
GASTEIGER

@<TRIPOS>ATOM
      1 N          62.5495   88.1463   12.3527 N.3     1  UNL1       -0.2660
      2 C          62.0550   89.5621   12.3178 C.3     1  UNL1        0.0926
      3 C          61.7544   90.2193   11.0034 C.3     1  UNL1        0.0950
      4 N          62.8600   90.8508   10.2104 N.am    1  UNL1       -0.2706
      5 C          63.9790   91.5586   10.9153 C.2     1  UNL1        0.4020
      6 O          63.9923   91.6349   12.4133 O.2     1  UNL1       -0.2264
      7 H          62.8513   90.8007    9.2272 H       1  UNL1        0.1527
      8 O          65.0846   92.1901   10.1223 O.3     1  UNL1       -0.4274
      9 C          66.2033   92.8982   10.8273 C.3     1  UNL1        0.2621
     10 C          66.5125   94.3281   10.4961 C.ar    1  UNL1        0.1323
     11 N          66.1661   95.5222   11.3352 N.ar    1  UNL1       -0.2374
     12 C          66.6618   96.7471   10.6254 C.ar    1  UNL1        0.1062
     13 C          67.3147   96.3101    9.3476 C.ar    1  UNL1        0.0573
     14 S          67.2224   94.8150    9.2677 S.2     1  UNL1       -0.0666
     15 C          60.3482   90.2451   10.4820 C.3     1  UNL1        0.0474
     16 C          59.9275   89.2826    9.4112 C.ar    1  UNL1       -0.0205
     17 C          59.9820   89.6937    7.9696 C.ar    1  UNL1       -0.0042
     18 C          59.5614   88.7312    6.8988 C.ar    1  UNL1       -0.0003
     19 C          59.0863   87.3576    7.2695 C.ar    1  UNL1       -0.0000
     20 C          59.0318   86.9464    8.7110 C.ar    1  UNL1       -0.0003
     21 C          59.4525   87.9090    9.7819 C.ar    1  UNL1       -0.0042
     22 C          61.7005   87.0415   11.7972 C.3     1  UNL1        0.1008
     23 C          62.2988   86.0346   10.8600 C.ar    1  UNL1        0.0130
     24 C          62.4925   86.3792    9.4131 C.ar    1  UNL1        0.0002
     25 C          63.0908   85.3724    8.4759 C.ar    1  UNL1        0.0204
     26 C          63.4954   84.0210    8.9857 C.ar    1  UNL1        0.0989
     27 N          63.3018   83.6764   10.4327 N.ar    1  UNL1       -0.2426
     28 C          62.7035   84.6832   11.3698 C.ar    1  UNL1        0.0959
     29 C          63.8929   87.8354   12.9430 C.3     1  UNL1        0.0926
     30 C          64.1939   88.2138   14.3630 C.3     1  UNL1        0.0950
     31 O          62.2764   89.7124   16.1173 O.2     1  UNL1       -0.2264
     32 C          63.5047   90.3957   15.5935 C.2     1  UNL1        0.4020
     33 N          64.4634   89.6465   14.7164 N.am    1  UNL1       -0.2706
     34 H          65.2696   90.0950   14.3726 H       1  UNL1        0.1527
     35 O          63.7742   91.8284   15.9469 O.3     1  UNL1       -0.4291
     36 C          65.0549   92.2039   16.6316 C.3     1  UNL1        0.2447
     37 C          66.2670   92.5490   15.8181 C.ar    1  UNL1        0.0714
     38 C          66.2648   93.1626   14.4493 C.ar    1  UNL1        0.1053
     39 N          67.6905   93.3339   14.0158 N.ar    1  UNL1       -0.2350
     40 C          68.5740   92.8262   15.1167 C.ar    1  UNL1        0.1343
     41 S          67.6941   92.3410   16.2306 S.2     1  UNL1       -0.0652
     42 C          64.2253   87.1595   15.4295 C.3     1  UNL1        0.0474
     43 C          63.9732   85.7244   15.0732 C.ar    1  UNL1       -0.0205
     44 C          62.6605   85.0856   15.4178 C.ar    1  UNL1       -0.0042
     45 C          62.4083   83.6506   15.0615 C.ar    1  UNL1       -0.0003
     46 C          63.4688   82.8543   14.3606 C.ar    1  UNL1       -0.0000
     47 C          64.7815   83.4931   14.0160 C.ar    1  UNL1       -0.0003
     48 C          65.0336   84.9282   14.3723 C.ar    1  UNL1       -0.0042
@<TRIPOS>BOND
     1    31    32    2
     2    32    33   am
     3    33    30    1
     4    30    42    1
     5    42    43    1
     6    43    44   ar
     7    44    45   ar
     8    45    46   ar
     9    46    47   ar
    10    47    48   ar
    11    30    29    1
    12    29     1    1
    13     1    22    1
    14    22    23    1
    15    23    24   ar
    16    24    25   ar
    17    25    26   ar
    18    26    27   ar
    19    27    28   ar
    20     1     2    1
    21     3     2    1
    22     3    15    1
    23    15    16    1
    24    16    17   ar
    25    17    18   ar
    26    18    19   ar
    27    19    20   ar
    28    20    21   ar
    29     3     4    1
    30     4     5   am
    31     5     6    2
    32     5     8    1
    33     8     9    1
    34     9    10    1
    35    10    11   ar
    36    11    12   ar
    37    12    13   ar
    38    13    14   ar
    39    32    35    1
    40    35    36    1
    41    36    37    1
    42    37    38   ar
    43    38    39   ar
    44    39    40   ar
    45    40    41   ar
    46    48    43   ar
    47    28    23   ar
    48    21    16   ar
    49    14    10   ar
    50    41    37   ar
    51    33    34    1
    52     4     7    1
@<TRIPOS>MOLECULE
*****
 48 52 0 0 0
SMALL
GASTEIGER

@<TRIPOS>ATOM
      1 N          64.0690   91.2988   11.7162 N.3     1  UNL1       -0.2660
      2 C          63.4189   91.2459   13.0670 C.3     1  UNL1        0.0926
      3 C          64.2225   90.8537   14.2713 C.3     1  UNL1        0.0950
      4 N          64.4353   89.4038   14.5912 N.am    1  UNL1       -0.2706
      5 C          63.5211   88.7063   15.5544 C.2     1  UNL1        0.4020
      6 O          62.3941   89.4587   16.1975 O.2     1  UNL1       -0.2264
      7 H          65.1750   88.9099   14.1691 H       1  UNL1        0.1527
      8 O          63.7339   87.2563   15.8743 O.3     1  UNL1       -0.4274
      9 C          64.3735   86.3513   14.8636 C.3     1  UNL1        0.2621
     10 C          63.8384   84.9660   14.6523 C.ar    1  UNL1        0.1323
     11 N          62.4495   84.4989   14.9729 N.ar    1  UNL1       -0.2374
     12 C          62.3509   83.0488   14.6021 C.ar    1  UNL1        0.1062
     13 C          63.6789   82.6196   14.0523 C.ar    1  UNL1        0.0573
     14 S          64.5983   83.8045   14.0833 S.2     1  UNL1       -0.0666
     15 C          64.8135   91.9115   15.1556 C.3     1  UNL1        0.0474
     16 C          66.2913   92.1674   15.1342 C.ar    1  UNL1       -0.0205
     17 C          66.9232   93.0044   16.2067 C.ar    1  UNL1       -0.0042
     18 C          68.4010   93.2604   16.1852 C.ar    1  UNL1       -0.0003
     19 C          69.2470   92.6794   15.0913 C.ar    1  UNL1       -0.0000
     20 C          68.6152   91.8424   14.0188 C.ar    1  UNL1       -0.0003
     21 C          67.1373   91.5864   14.0402 C.ar    1  UNL1       -0.0042
     22 C          65.5533   91.4838   11.6050 C.3     1  UNL1        0.1008
     23 C          66.1088   92.6462   10.8366 C.ar    1  UNL1        0.0130
     24 C          67.3195   92.4627    9.9702 C.ar    1  UNL1        0.0002
     25 C          67.8750   93.6250    9.2019 C.ar    1  UNL1        0.0204
     26 C          67.2199   94.9708    9.3000 C.ar    1  UNL1        0.0989
     27 N          66.0093   95.1543   10.1664 N.ar    1  UNL1       -0.2426
     28 C          65.4537   93.9919   10.9348 C.ar    1  UNL1        0.0959
     29 C          63.2347   91.1668   10.4767 C.3     1  UNL1        0.0926
     30 C          62.3931   89.9432   10.2659 C.3     1  UNL1        0.0950
     31 O          59.5718   88.9981   10.6500 O.2     1  UNL1       -0.2264
     32 C          60.0508   89.3942    9.2849 C.2     1  UNL1        0.4020
     33 N          61.4614   89.8667    9.0928 N.am    1  UNL1       -0.2706
     34 H          61.7757   90.1266    8.1968 H       1  UNL1        0.1527
     35 O          59.1191   89.3177    8.1117 O.3     1  UNL1       -0.4291
     36 C          59.6681   89.3307    6.7159 C.3     1  UNL1        0.2447
     37 C          59.2792   90.4256    5.7673 C.ar    1  UNL1        0.0714
     38 C          57.8894   90.9421    5.5389 C.ar    1  UNL1        0.1053
     39 N          57.9630   92.0320    4.5110 N.ar    1  UNL1       -0.2350
     40 C          59.3982   92.1892    4.1039 C.ar    1  UNL1        0.1343
     41 S          60.2116   91.1964    4.8804 S.2     1  UNL1       -0.0652
     42 C          62.4831   88.7960   11.2282 C.3     1  UNL1        0.0474
     43 C          62.5532   87.3889   10.7133 C.ar    1  UNL1       -0.0205
     44 C          62.4587   86.2355   11.6676 C.ar    1  UNL1       -0.0042
     45 C          62.5287   84.8284   11.1527 C.ar    1  UNL1       -0.0003
     46 C          62.6932   84.5747    9.6835 C.ar    1  UNL1       -0.0000
     47 C          62.7876   85.7281    8.7292 C.ar    1  UNL1       -0.0003
     48 C          62.7176   87.1352    9.2441 C.ar    1  UNL1       -0.0042
@<TRIPOS>BOND
     1    31    32    2
     2    32    33   am
     3    33    30    1
     4    30    42    1
     5    42    43    1
     6    43    44   ar
     7    44    45   ar
     8    45    46   ar
     9    46    47   ar
    10    47    48   ar
    11    30    29    1
    12    29     1    1
    13     1    22    1
    14    22    23    1
    15    23    24   ar
    16    24    25   ar
    17    25    26   ar
    18    26    27   ar
    19    27    28   ar
    20     1     2    1
    21     3     2    1
    22     3    15    1
    23    15    16    1
    24    16    17   ar
    25    17    18   ar
    26    18    19   ar
    27    19    20   ar
    28    20    21   ar
    29     3     4    1
    30     4     5   am
    31     5     6    2
    32     5     8    1
    33     8     9    1
    34     9    10    1
    35    10    11   ar
    36    11    12   ar
    37    12    13   ar
    38    13    14   ar
    39    32    35    1
    40    35    36    1
    41    36    37    1
    42    37    38   ar
    43    38    39   ar
    44    39    40   ar
    45    40    41   ar
    46    48    43   ar
    47    28    23   ar
    48    21    16   ar
    49    14    10   ar
    50    41    37   ar
    51    33    34    1
    52     4     7    1
@<TRIPOS>MOLECULE
*****
 48 52 0 0 0
SMALL
GASTEIGER

@<TRIPOS>ATOM
      1 N          63.4373   90.3720   13.5398 N.3     1  UNL1       -0.2660
      2 C          63.6774   91.7353   12.9619 C.3     1  UNL1        0.0926
      3 C          65.0359   92.1005   12.4412 C.3     1  UNL1        0.0950
      4 N          65.1833   93.2120   11.4448 N.am    1  UNL1       -0.2706
      5 C          65.7428   94.5356   11.8750 C.2     1  UNL1        0.4020
      6 O          66.1548   94.7476   13.3016 O.2     1  UNL1       -0.2264
      7 H          64.9129   93.0728   10.5084 H       1  UNL1        0.1527
      8 O          65.8902   95.6471   10.8786 O.3     1  UNL1       -0.4274
      9 C          66.9918   95.6015    9.8616 C.3     1  UNL1        0.2621
     10 C          67.6536   94.2967    9.5308 C.ar    1  UNL1        0.1323
     11 N          67.9389   93.1833   10.4947 N.ar    1  UNL1       -0.2374
     12 C          68.6078   92.0746    9.7375 C.ar    1  UNL1        0.1062
     13 C          68.7360   92.5027    8.3056 C.ar    1  UNL1        0.0573
     14 S          68.1463   93.8760    8.1778 S.2     1  UNL1       -0.0666
     15 C          66.2470   91.3541   12.9168 C.3     1  UNL1        0.0474
     16 C          67.0850   91.9145   14.0276 C.ar    1  UNL1       -0.0205
     17 C          66.4456   92.2986   15.3290 C.ar    1  UNL1       -0.0042
     18 C          67.2835   92.8589   16.4398 C.ar    1  UNL1       -0.0003
     19 C          68.7609   93.0352   16.2492 C.ar    1  UNL1       -0.0000
     20 C          69.4003   92.6511   14.9478 C.ar    1  UNL1       -0.0003
     21 C          68.5623   92.0907   13.8370 C.ar    1  UNL1       -0.0042
     22 C          64.2566   89.8953   14.7022 C.3     1  UNL1        0.1008
     23 C          63.9000   88.6138   15.3957 C.ar    1  UNL1        0.0130
     24 C          64.4845   87.3164   14.9211 C.ar    1  UNL1        0.0002
     25 C          64.1280   86.0350   15.6145 C.ar    1  UNL1        0.0204
     26 C          63.1871   86.0510   16.7825 C.ar    1  UNL1        0.0989
     27 N          62.6026   87.3483   17.2571 N.ar    1  UNL1       -0.2426
     28 C          62.9591   88.6298   16.5637 C.ar    1  UNL1        0.0959
     29 C          62.3779   89.4856   12.9552 C.3     1  UNL1        0.0926
     30 C          62.7021   88.5963   11.7916 C.3     1  UNL1        0.0950
     31 O          61.1644   86.0346   12.0618 O.2     1  UNL1       -0.2264
     32 C          62.6617   86.0234   12.1504 C.2     1  UNL1        0.4020
     33 N          63.4306   87.3042   12.0153 N.am    1  UNL1       -0.2706
     34 H          64.4133   87.2969   12.0735 H       1  UNL1        0.1527
     35 O          63.3902   84.7313   12.3741 O.3     1  UNL1       -0.4291
     36 C          62.8928   83.4693   11.7339 C.3     1  UNL1        0.2447
     37 C          62.6179   82.2590   12.5762 C.ar    1  UNL1        0.0714
     38 C          62.1355   82.2643   13.9965 C.ar    1  UNL1        0.1053
     39 N          61.9965   80.8394   14.4442 N.ar    1  UNL1       -0.2350
     40 C          62.3931   79.9534   13.3006 C.ar    1  UNL1        0.1343
     41 S          62.7771   80.8308   12.1461 S.2     1  UNL1       -0.0652
     42 C          62.2980   88.9990   10.4043 C.3     1  UNL1        0.0474
     43 C          61.5536   88.0338    9.5301 C.ar    1  UNL1       -0.0205
     44 C          60.1017   88.2606    9.2292 C.ar    1  UNL1       -0.0042
     45 C          59.3572   87.2955    8.3550 C.ar    1  UNL1       -0.0003
     46 C          60.0647   86.1035    7.7816 C.ar    1  UNL1       -0.0000
     47 C          61.5165   85.8768    8.0825 C.ar    1  UNL1       -0.0003
     48 C          62.2610   86.8419    8.9567 C.ar    1  UNL1       -0.0042
@<TRIPOS>BOND
     1    31    32    2
     2    32    33   am
     3    33    30    1
     4    30    42    1
     5    42    43    1
     6    43    44   ar
     7    44    45   ar
     8    45    46   ar
     9    46    47   ar
    10    47    48   ar
    11    30    29    1
    12    29     1    1
    13     1    22    1
    14    22    23    1
    15    23    24   ar
    16    24    25   ar
    17    25    26   ar
    18    26    27   ar
    19    27    28   ar
    20     1     2    1
    21     3     2    1
    22     3    15    1
    23    15    16    1
    24    16    17   ar
    25    17    18   ar
    26    18    19   ar
    27    19    20   ar
    28    20    21   ar
    29     3     4    1
    30     4     5   am
    31     5     6    2
    32     5     8    1
    33     8     9    1
    34     9    10    1
    35    10    11   ar
    36    11    12   ar
    37    12    13   ar
    38    13    14   ar
    39    32    35    1
    40    35    36    1
    41    36    37    1
    42    37    38   ar
    43    38    39   ar
    44    39    40   ar
    45    40    41   ar
    46    48    43   ar
    47    28    23   ar
    48    21    16   ar
    49    14    10   ar
    50    41    37   ar
    51    33    34    1
    52     4     7    1
@<TRIPOS>MOLECULE
*****
 48 52 0 0 0
SMALL
GASTEIGER

@<TRIPOS>ATOM
      1 N          63.6564   90.7461   12.8067 N.3     1  UNL1       -0.2660
      2 C          64.9482   90.9894   12.0841 C.3     1  UNL1        0.0926
      3 C          65.5534   92.3618   12.0714 C.3     1  UNL1        0.0950
      4 N          66.1107   92.9239   10.7972 N.am    1  UNL1       -0.2706
      5 C          67.5477   92.6870   10.4383 C.2     1  UNL1        0.4020
      6 O          68.4274   91.8879   11.3535 O.2     1  UNL1       -0.2264
      7 H          65.5333   93.4483   10.1966 H       1  UNL1        0.1527
      8 O          68.1050   93.2491    9.1641 O.3     1  UNL1       -0.4274
      9 C          68.1104   94.7319    8.9377 C.3     1  UNL1        0.2621
     10 C          66.9536   95.5658    9.4028 C.ar    1  UNL1        0.1323
     11 N          66.7217   96.0487   10.8038 N.ar    1  UNL1       -0.2374
     12 C          65.4503   96.8447   10.8154 C.ar    1  UNL1        0.1062
     13 C          64.8965   96.8538    9.4214 C.ar    1  UNL1        0.0573
     14 S          65.8256   96.0634    8.5483 S.2     1  UNL1       -0.0666
     15 C          65.6014   93.1721   13.3328 C.3     1  UNL1        0.0474
     16 C          66.7277   92.9806   14.3048 C.ar    1  UNL1       -0.0205
     17 C          67.0841   91.6024   14.7778 C.ar    1  UNL1       -0.0042
     18 C          68.2103   91.4109   15.7498 C.ar    1  UNL1       -0.0003
     19 C          68.9802   92.5976   16.2490 C.ar    1  UNL1       -0.0000
     20 C          68.6238   93.9757   15.7761 C.ar    1  UNL1       -0.0003
     21 C          67.4975   94.1673   14.8040 C.ar    1  UNL1       -0.0042
     22 C          63.6350   90.6859   14.3053 C.3     1  UNL1        0.1008
     23 C          63.6351   89.3578   15.0026 C.ar    1  UNL1        0.0130
     24 C          64.3092   88.1776   14.3682 C.ar    1  UNL1        0.0002
     25 C          64.3092   86.8495   15.0655 C.ar    1  UNL1        0.0204
     26 C          63.6351   86.7017   16.3972 C.ar    1  UNL1        0.0989
     27 N          62.9610   87.8820   17.0317 N.ar    1  UNL1       -0.2426
     28 C          62.9610   89.2100   16.3344 C.ar    1  UNL1        0.0959
     29 C          62.3859   90.5630   12.0306 C.3     1  UNL1        0.0926
     30 C          62.2423   89.4036   11.0896 C.3     1  UNL1        0.0950
     31 O          60.0154   87.5691   11.9114 O.2     1  UNL1       -0.2264
     32 C          61.4375   87.0959   11.9710 C.2     1  UNL1        0.4020
     33 N          62.5510   88.0131   11.5601 N.am    1  UNL1       -0.2706
     34 H          63.4844   87.7025   11.5992 H       1  UNL1        0.1527
     35 O          61.7462   85.7054   12.4415 O.3     1  UNL1       -0.4291
     36 C          62.8047   84.8976   11.7509 C.3     1  UNL1        0.2447
     37 C          63.2593   83.5959   12.3414 C.ar    1  UNL1        0.0714
     38 C          64.0568   82.5387   11.6367 C.ar    1  UNL1        0.1053
     39 N          64.2866   81.4121   12.6001 N.ar    1  UNL1       -0.2350
     40 C          63.6311   81.7730   13.9002 C.ar    1  UNL1        0.1343
     41 S          62.9962   83.1226   13.7403 S.2     1  UNL1       -0.0652
     42 C          61.7901   89.6348    9.6783 C.3     1  UNL1        0.0474
     43 C          61.0368   88.5634    8.9471 C.ar    1  UNL1       -0.0205
     44 C          61.5678   87.1609    8.9165 C.ar    1  UNL1       -0.0042
     45 C          60.8145   86.0895    8.1853 C.ar    1  UNL1       -0.0003
     46 C          59.5303   86.4206    7.4846 C.ar    1  UNL1       -0.0000
     47 C          58.9993   87.8231    7.5152 C.ar    1  UNL1       -0.0003
     48 C          59.7526   88.8945    8.2464 C.ar    1  UNL1       -0.0042
@<TRIPOS>BOND
     1    31    32    2
     2    32    33   am
     3    33    30    1
     4    30    42    1
     5    42    43    1
     6    43    44   ar
     7    44    45   ar
     8    45    46   ar
     9    46    47   ar
    10    47    48   ar
    11    30    29    1
    12    29     1    1
    13     1    22    1
    14    22    23    1
    15    23    24   ar
    16    24    25   ar
    17    25    26   ar
    18    26    27   ar
    19    27    28   ar
    20     1     2    1
    21     3     2    1
    22     3    15    1
    23    15    16    1
    24    16    17   ar
    25    17    18   ar
    26    18    19   ar
    27    19    20   ar
    28    20    21   ar
    29     3     4    1
    30     4     5   am
    31     5     6    2
    32     5     8    1
    33     8     9    1
    34     9    10    1
    35    10    11   ar
    36    11    12   ar
    37    12    13   ar
    38    13    14   ar
    39    32    35    1
    40    35    36    1
    41    36    37    1
    42    37    38   ar
    43    38    39   ar
    44    39    40   ar
    45    40    41   ar
    46    48    43   ar
    47    28    23   ar
    48    21    16   ar
    49    14    10   ar
    50    41    37   ar
    51    33    34    1
    52     4     7    1
@<TRIPOS>MOLECULE
*****
 48 52 0 0 0
SMALL
GASTEIGER

@<TRIPOS>ATOM
      1 N          62.0472   87.7285   11.7029 N.3     1  UNL1       -0.2660
      2 C          63.3678   88.1071   12.3053 C.3     1  UNL1        0.0926
      3 C          63.5581   89.4719   12.8979 C.3     1  UNL1        0.0950
      4 N          63.7053   90.6651   12.0010 N.am    1  UNL1       -0.2706
      5 C          64.7862   91.6715   12.2631 C.2     1  UNL1        0.4020
      6 O          65.7198   91.4847   13.4222 O.2     1  UNL1       -0.2264
      7 H          63.0925   90.7877   11.2403 H       1  UNL1        0.1527
      8 O          64.9334   92.8648   11.3662 O.3     1  UNL1       -0.4274
      9 C          66.0028   93.8807   11.6390 C.3     1  UNL1        0.2621
     10 C          66.5145   94.7480   10.5273 C.ar    1  UNL1        0.1323
     11 N          67.0906   94.2680    9.2283 N.ar    1  UNL1       -0.2374
     12 C          67.4721   95.4710    8.4176 C.ar    1  UNL1        0.1062
     13 C          67.1317   96.6946    9.2156 C.ar    1  UNL1        0.0573
     14 S          66.5398   96.2479   10.5195 S.2     1  UNL1       -0.0666
     15 C          63.6011   89.6434   14.3875 C.3     1  UNL1        0.0474
     16 C          63.5897   88.4392   15.2817 C.ar    1  UNL1       -0.0205
     17 C          64.3323   87.1994   14.8797 C.ar    1  UNL1       -0.0042
     18 C          64.3209   85.9952   15.7740 C.ar    1  UNL1       -0.0003
     19 C          63.5671   86.0307   17.0703 C.ar    1  UNL1       -0.0000
     20 C          62.8245   87.2704   17.4723 C.ar    1  UNL1       -0.0003
     21 C          62.8359   88.4747   16.5780 C.ar    1  UNL1       -0.0042
     22 C          61.4692   86.3680   11.9578 C.3     1  UNL1        0.1008
     23 C          62.3779   85.1867   12.1272 C.ar    1  UNL1        0.0130
     24 C          63.1812   84.6854   10.9638 C.ar    1  UNL1        0.0002
     25 C          64.0899   83.5041   11.1331 C.ar    1  UNL1        0.0204
     26 C          64.1953   82.8240   12.4659 C.ar    1  UNL1        0.0989
     27 N          63.3920   83.3253   13.6293 N.ar    1  UNL1       -0.2426
     28 C          62.4833   84.5066   13.4600 C.ar    1  UNL1        0.0959
     29 C          61.3048   88.7102   10.8457 C.3     1  UNL1        0.0926
     30 C          60.7565   88.2814    9.5171 C.3     1  UNL1        0.0950
     31 O          58.4324   88.1180    7.6270 O.2     1  UNL1       -0.2264
     32 C          59.4618   89.1960    7.4586 C.2     1  UNL1        0.4020
     33 N          60.6238   89.2777    8.4035 N.am    1  UNL1       -0.2706
     34 H          61.2994   89.9852    8.2929 H       1  UNL1        0.1527
     35 O          59.3291   90.1923    6.3450 O.3     1  UNL1       -0.4291
     36 C          60.5336   90.5836    5.5413 C.3     1  UNL1        0.2447
     37 C          60.3960   91.5597    4.4108 C.ar    1  UNL1        0.0714
     38 C          59.1508   92.3094    4.0397 C.ar    1  UNL1        0.1053
     39 N          59.4647   93.1706    2.8523 N.ar    1  UNL1       -0.2350
     40 C          60.9038   92.9532    2.4894 C.ar    1  UNL1        0.1343
     41 S          61.4794   91.9576    3.4526 S.2     1  UNL1       -0.0652
     42 C          60.3408   86.8563    9.3019 C.3     1  UNL1        0.0474
     43 C          61.0519   86.0129    8.2855 C.ar    1  UNL1       -0.0205
     44 C          60.2777   85.3581    7.1803 C.ar    1  UNL1       -0.0042
     45 C          60.9888   84.5147    6.1639 C.ar    1  UNL1       -0.0003
     46 C          62.4742   84.3261    6.2528 C.ar    1  UNL1       -0.0000
     47 C          63.2485   84.9810    7.3581 C.ar    1  UNL1       -0.0003
     48 C          62.5374   85.8244    8.3744 C.ar    1  UNL1       -0.0042
@<TRIPOS>BOND
     1    31    32    2
     2    32    33   am
     3    33    30    1
     4    30    42    1
     5    42    43    1
     6    43    44   ar
     7    44    45   ar
     8    45    46   ar
     9    46    47   ar
    10    47    48   ar
    11    30    29    1
    12    29     1    1
    13     1    22    1
    14    22    23    1
    15    23    24   ar
    16    24    25   ar
    17    25    26   ar
    18    26    27   ar
    19    27    28   ar
    20     1     2    1
    21     3     2    1
    22     3    15    1
    23    15    16    1
    24    16    17   ar
    25    17    18   ar
    26    18    19   ar
    27    19    20   ar
    28    20    21   ar
    29     3     4    1
    30     4     5   am
    31     5     6    2
    32     5     8    1
    33     8     9    1
    34     9    10    1
    35    10    11   ar
    36    11    12   ar
    37    12    13   ar
    38    13    14   ar
    39    32    35    1
    40    35    36    1
    41    36    37    1
    42    37    38   ar
    43    38    39   ar
    44    39    40   ar
    45    40    41   ar
    46    48    43   ar
    47    28    23   ar
    48    21    16   ar
    49    14    10   ar
    50    41    37   ar
    51    33    34    1
    52     4     7    1
@<TRIPOS>MOLECULE
*****
 48 52 0 0 0
SMALL
GASTEIGER

@<TRIPOS>ATOM
      1 N          61.5128   87.1322   10.3559 N.3     1  UNL1       -0.2660
      2 C          60.3886   88.0877   10.0854 C.3     1  UNL1        0.0926
      3 C          60.4390   88.9844    8.8840 C.3     1  UNL1        0.0950
      4 N          61.4598   90.0810    8.8089 N.am    1  UNL1       -0.2706
      5 C          62.0340   90.6586   10.0685 C.2     1  UNL1        0.4020
      6 O          61.5876   90.1397   11.4031 O.2     1  UNL1       -0.2264
      7 H          61.7528   90.4215    7.9329 H       1  UNL1        0.1527
      8 O          63.0548   91.7552    9.9933 O.3     1  UNL1       -0.4274
      9 C          64.2551   91.7254   10.8924 C.3     1  UNL1        0.2621
     10 C          65.4233   92.6242   10.6139 C.ar    1  UNL1        0.1323
     11 N          66.7813   92.1870   10.1507 N.ar    1  UNL1       -0.2374
     12 C          67.6359   93.4105   10.0002 C.ar    1  UNL1        0.1062
     13 C          66.8060   94.6039   10.3705 C.ar    1  UNL1        0.0573
     14 S          65.4385   94.1180   10.7498 S.2     1  UNL1       -0.0666
     15 C          59.4687   88.7846    7.7577 C.3     1  UNL1        0.0474
     16 C          59.3898   89.7909    6.6482 C.ar    1  UNL1       -0.0205
     17 C          60.6371   90.2172    5.9322 C.ar    1  UNL1       -0.0042
     18 C          60.5583   91.2236    4.8227 C.ar    1  UNL1       -0.0003
     19 C          59.2321   91.8038    4.4293 C.ar    1  UNL1       -0.0000
     20 C          57.9849   91.3776    5.1453 C.ar    1  UNL1       -0.0003
     21 C          58.0637   90.3711    6.2548 C.ar    1  UNL1       -0.0042
     22 C          62.4773   86.7801    9.2624 C.3     1  UNL1        0.1008
     23 C          62.0468   85.8768    8.1448 C.ar    1  UNL1        0.0130
     24 C          63.0700   85.0925    7.3780 C.ar    1  UNL1        0.0002
     25 C          62.6396   84.1893    6.2604 C.ar    1  UNL1        0.0204
     26 C          61.1861   84.0703    5.9097 C.ar    1  UNL1        0.0989
     27 N          60.1629   84.8546    6.6765 N.ar    1  UNL1       -0.2426
     28 C          60.5933   85.7579    7.7941 C.ar    1  UNL1        0.0959
     29 C          61.6726   86.5289   11.7198 C.3     1  UNL1        0.0926
     30 C          62.9005   86.8214   12.5302 C.3     1  UNL1        0.0950
     31 O          63.6643   88.1660   15.1009 O.2     1  UNL1       -0.2264
     32 C          63.8861   88.8667   13.7933 C.2     1  UNL1        0.4020
     33 N          63.5042   88.1944   12.5080 N.am    1  UNL1       -0.2706
     34 H          63.6499   88.6543   11.6498 H       1  UNL1        0.1527
     35 O          64.4899   90.2397   13.7711 O.3     1  UNL1       -0.4291
     36 C          65.0640   90.8269   15.0263 C.3     1  UNL1        0.2447
     37 C          66.2620   91.7265   14.9537 C.ar    1  UNL1        0.0714
     38 C          67.2153   91.8340   13.8005 C.ar    1  UNL1        0.1053
     39 N          68.2596   92.8505   14.1556 N.ar    1  UNL1       -0.2350
     40 C          67.9518   93.3713   15.5282 C.ar    1  UNL1        0.1343
     41 S          66.7172   92.6766   16.0215 S.2     1  UNL1       -0.0652
     42 C          63.5246   85.7410   13.3627 C.3     1  UNL1        0.0474
     43 C          63.1965   84.3024   13.0931 C.ar    1  UNL1       -0.0205
     44 C          62.5556   83.4664   14.1609 C.ar    1  UNL1       -0.0042
     45 C          62.2275   82.0278   13.8912 C.ar    1  UNL1       -0.0003
     46 C          62.5404   81.4251   12.5537 C.ar    1  UNL1       -0.0000
     47 C          63.1813   82.2611   11.4859 C.ar    1  UNL1       -0.0003
     48 C          63.5094   83.6998   11.7556 C.ar    1  UNL1       -0.0042
@<TRIPOS>BOND
     1    31    32    2
     2    32    33   am
     3    33    30    1
     4    30    42    1
     5    42    43    1
     6    43    44   ar
     7    44    45   ar
     8    45    46   ar
     9    46    47   ar
    10    47    48   ar
    11    30    29    1
    12    29     1    1
    13     1    22    1
    14    22    23    1
    15    23    24   ar
    16    24    25   ar
    17    25    26   ar
    18    26    27   ar
    19    27    28   ar
    20     1     2    1
    21     3     2    1
    22     3    15    1
    23    15    16    1
    24    16    17   ar
    25    17    18   ar
    26    18    19   ar
    27    19    20   ar
    28    20    21   ar
    29     3     4    1
    30     4     5   am
    31     5     6    2
    32     5     8    1
    33     8     9    1
    34     9    10    1
    35    10    11   ar
    36    11    12   ar
    37    12    13   ar
    38    13    14   ar
    39    32    35    1
    40    35    36    1
    41    36    37    1
    42    37    38   ar
    43    38    39   ar
    44    39    40   ar
    45    40    41   ar
    46    48    43   ar
    47    28    23   ar
    48    21    16   ar
    49    14    10   ar
    50    41    37   ar
    51    33    34    1
    52     4     7    1
@<TRIPOS>MOLECULE
*****
 48 52 0 0 0
SMALL
GASTEIGER

@<TRIPOS>ATOM
      1 N          61.4846   87.8019   11.4936 N.3     1  UNL1       -0.2660
      2 C          62.7752   88.4370   11.9190 C.3     1  UNL1        0.0926
      3 C          62.7707   89.8043   12.5358 C.3     1  UNL1        0.0950
      4 N          62.4066   89.9740   13.9810 N.am    1  UNL1       -0.2706
      5 C          63.3097   89.4346   15.0503 C.2     1  UNL1        0.4020
      6 O          64.5768   88.7254   14.6744 O.2     1  UNL1       -0.2264
      7 H          61.5749   90.4395   14.2277 H       1  UNL1        0.1527
      8 O          62.9455   89.6043   16.4955 O.3     1  UNL1       -0.4274
      9 C          63.1433   88.4701   17.4570 C.3     1  UNL1        0.2621
     10 C          62.8365   87.0646   17.0322 C.ar    1  UNL1        0.1323
     11 N          61.4774   86.4310   16.9968 N.ar    1  UNL1       -0.2374
     12 C          61.6359   85.0207   16.5110 C.ar    1  UNL1        0.1062
     13 C          63.0930   84.7827   16.2461 C.ar    1  UNL1        0.0573
     14 S          63.8351   86.0459   16.5682 S.2     1  UNL1       -0.0666
     15 C          63.1304   91.0020   11.7073 C.3     1  UNL1        0.0474
     16 C          64.4809   91.6379   11.8550 C.ar    1  UNL1       -0.0205
     17 C          65.1427   92.2767   10.6701 C.ar    1  UNL1       -0.0042
     18 C          66.4932   92.9127   10.8178 C.ar    1  UNL1       -0.0003
     19 C          67.1818   92.9098   12.1504 C.ar    1  UNL1       -0.0000
     20 C          66.5200   92.2711   13.3353 C.ar    1  UNL1       -0.0003
     21 C          65.1695   91.6351   13.1876 C.ar    1  UNL1       -0.0042
     22 C          61.2024   86.3705   11.8421 C.3     1  UNL1        0.1008
     23 C          62.3285   85.3833   11.9272 C.ar    1  UNL1        0.0130
     24 C          62.4420   84.2856   10.9112 C.ar    1  UNL1        0.0002
     25 C          63.5681   83.2984   10.9963 C.ar    1  UNL1        0.0204
     26 C          64.5807   83.4088   12.0974 C.ar    1  UNL1        0.0989
     27 N          64.4672   84.5065   13.1134 N.ar    1  UNL1       -0.2426
     28 C          63.3411   85.4937   13.0283 C.ar    1  UNL1        0.0959
     29 C          60.4761   88.5982   10.7198 C.3     1  UNL1        0.0926
     30 C          60.1997   88.2652    9.2835 C.3     1  UNL1        0.0950
     31 O          58.2337   88.2828    7.0176 O.2     1  UNL1       -0.2264
     32 C          59.2871   89.3472    7.1049 C.2     1  UNL1        0.4020
     33 N          60.2701   89.3384    8.2379 N.am    1  UNL1       -0.2706
     34 H          60.9614   90.0370    8.2952 H       1  UNL1        0.1527
     35 O          59.3574   90.4204    6.0592 O.3     1  UNL1       -0.4291
     36 C          60.6476   90.6845    5.3412 C.3     1  UNL1        0.2447
     37 C          60.6881   91.6675    4.2089 C.ar    1  UNL1        0.0714
     38 C          61.8541   91.9163    3.2986 C.ar    1  UNL1        0.1053
     39 N          61.4564   92.9768    2.3151 N.ar    1  UNL1       -0.2350
     40 C          60.0445   93.3834    2.6176 C.ar    1  UNL1        0.1343
     41 S          59.5697   92.5742    3.7880 S.2     1  UNL1       -0.0652
     42 C          59.8530   86.8591    8.8930 C.3     1  UNL1        0.0474
     43 C          60.8187   86.0459    8.0830 C.ar    1  UNL1       -0.0205
     44 C          60.3228   85.2150    6.9369 C.ar    1  UNL1       -0.0042
     45 C          61.2885   84.4018    6.1269 C.ar    1  UNL1       -0.0003
     46 C          62.7502   84.4194    6.4631 C.ar    1  UNL1       -0.0000
     47 C          63.2462   85.2503    7.6092 C.ar    1  UNL1       -0.0003
     48 C          62.2805   86.0635    8.4192 C.ar    1  UNL1       -0.0042
@<TRIPOS>BOND
     1    31    32    2
     2    32    33   am
     3    33    30    1
     4    30    42    1
     5    42    43    1
     6    43    44   ar
     7    44    45   ar
     8    45    46   ar
     9    46    47   ar
    10    47    48   ar
    11    30    29    1
    12    29     1    1
    13     1    22    1
    14    22    23    1
    15    23    24   ar
    16    24    25   ar
    17    25    26   ar
    18    26    27   ar
    19    27    28   ar
    20     1     2    1
    21     3     2    1
    22     3    15    1
    23    15    16    1
    24    16    17   ar
    25    17    18   ar
    26    18    19   ar
    27    19    20   ar
    28    20    21   ar
    29     3     4    1
    30     4     5   am
    31     5     6    2
    32     5     8    1
    33     8     9    1
    34     9    10    1
    35    10    11   ar
    36    11    12   ar
    37    12    13   ar
    38    13    14   ar
    39    32    35    1
    40    35    36    1
    41    36    37    1
    42    37    38   ar
    43    38    39   ar
    44    39    40   ar
    45    40    41   ar
    46    48    43   ar
    47    28    23   ar
    48    21    16   ar
    49    14    10   ar
    50    41    37   ar
    51    33    34    1
    52     4     7    1
@<TRIPOS>MOLECULE
*****
 48 52 0 0 0
SMALL
GASTEIGER

@<TRIPOS>ATOM
      1 N          62.1117   90.1866   11.4364 N.3     1  UNL1       -0.2660
      2 C          63.2939   90.9051   10.8565 C.3     1  UNL1        0.0926
      3 C          64.3131   91.5267   11.7646 C.3     1  UNL1        0.0950
      4 N          63.9219   91.9593   13.1466 N.am    1  UNL1       -0.2706
      5 C          64.6701   91.4355   14.3364 C.2     1  UNL1        0.4020
      6 O          65.8096   90.4791   14.1443 O.2     1  UNL1       -0.2264
      7 H          63.1740   92.5870   13.2727 H       1  UNL1        0.1527
      8 O          64.2788   91.8680   15.7184 O.3     1  UNL1       -0.4274
      9 C          65.2542   92.6222   16.5725 C.3     1  UNL1        0.2621
     10 C          66.6855   92.7502   16.1422 C.ar    1  UNL1        0.1323
     11 N          67.8600   92.0601   16.7700 N.ar    1  UNL1       -0.2374
     12 C          69.0939   92.4742   16.0243 C.ar    1  UNL1        0.1062
     13 C          68.6820   93.4202   14.9356 C.ar    1  UNL1        0.0573
     14 S          67.1934   93.5909   15.0084 S.2     1  UNL1       -0.0666
     15 C          65.7237   91.7159   11.2907 C.3     1  UNL1        0.0474
     16 C          66.1907   93.0707   10.8476 C.ar    1  UNL1       -0.0205
     17 C          65.7066   94.3002   11.5577 C.ar    1  UNL1       -0.0042
     18 C          66.1737   95.6550   11.1146 C.ar    1  UNL1       -0.0003
     19 C          67.1248   95.7804    9.9615 C.ar    1  UNL1       -0.0000
     20 C          67.6089   94.5510    9.2515 C.ar    1  UNL1       -0.0003
     21 C          67.1419   93.1961    9.6945 C.ar    1  UNL1       -0.0042
     22 C          60.7647   90.3146   10.7889 C.3     1  UNL1        0.1008
     23 C          60.3104   89.2882    9.7937 C.ar    1  UNL1        0.0130
     24 C          60.0337   89.6900    8.3753 C.ar    1  UNL1        0.0002
     25 C          59.5794   88.6638    7.3801 C.ar    1  UNL1        0.0204
     26 C          59.4019   87.2358    7.8033 C.ar    1  UNL1        0.0989
     27 N          59.6787   86.8340    9.2218 N.ar    1  UNL1       -0.2426
     28 C          60.1329   87.8602   10.2170 C.ar    1  UNL1        0.0959
     29 C          62.2764   89.3403   12.6638 C.3     1  UNL1        0.0926
     30 C          63.2462   88.1959   12.6611 C.3     1  UNL1        0.0950
     31 O          62.0306   85.4954   13.1401 O.2     1  UNL1       -0.2264
     32 C          62.6007   85.8333   11.7944 C.2     1  UNL1        0.4020
     33 N          63.2085   87.1835   11.5549 N.am    1  UNL1       -0.2706
     34 H          63.5826   87.4053   10.6717 H       1  UNL1        0.1527
     35 O          62.5630   84.8208   10.6882 O.3     1  UNL1       -0.4291
     36 C          63.5079   83.6561   10.7050 C.3     1  UNL1        0.2447
     37 C          63.4526   82.6615   11.8264 C.ar    1  UNL1        0.0714
     38 C          64.1323   82.7943   13.1571 C.ar    1  UNL1        0.1053
     39 N          63.8076   81.5744   13.9672 N.ar    1  UNL1       -0.2350
     40 C          62.9271   80.6876   13.1374 C.ar    1  UNL1        0.1343
     41 S          62.7077   81.3595   11.8143 S.2     1  UNL1       -0.0652
     42 C          64.2536   88.0640   13.7646 C.3     1  UNL1        0.0474
     43 C          63.8298   87.5538   15.1100 C.ar    1  UNL1       -0.0205
     44 C          63.2837   88.5038   16.1343 C.ar    1  UNL1       -0.0042
     45 C          62.8599   87.9936   17.4798 C.ar    1  UNL1       -0.0003
     46 C          62.9823   86.5335   17.8009 C.ar    1  UNL1       -0.0000
     47 C          63.5284   85.5836   16.7765 C.ar    1  UNL1       -0.0003
     48 C          63.9522   86.0937   15.4311 C.ar    1  UNL1       -0.0042
@<TRIPOS>BOND
     1    31    32    2
     2    32    33   am
     3    33    30    1
     4    30    42    1
     5    42    43    1
     6    43    44   ar
     7    44    45   ar
     8    45    46   ar
     9    46    47   ar
    10    47    48   ar
    11    30    29    1
    12    29     1    1
    13     1    22    1
    14    22    23    1
    15    23    24   ar
    16    24    25   ar
    17    25    26   ar
    18    26    27   ar
    19    27    28   ar
    20     1     2    1
    21     3     2    1
    22     3    15    1
    23    15    16    1
    24    16    17   ar
    25    17    18   ar
    26    18    19   ar
    27    19    20   ar
    28    20    21   ar
    29     3     4    1
    30     4     5   am
    31     5     6    2
    32     5     8    1
    33     8     9    1
    34     9    10    1
    35    10    11   ar
    36    11    12   ar
    37    12    13   ar
    38    13    14   ar
    39    32    35    1
    40    35    36    1
    41    36    37    1
    42    37    38   ar
    43    38    39   ar
    44    39    40   ar
    45    40    41   ar
    46    48    43   ar
    47    28    23   ar
    48    21    16   ar
    49    14    10   ar
    50    41    37   ar
    51    33    34    1
    52     4     7    1
