@<TRIPOS>MOLECULE
*****
 25 27 0 0 0
SMALL
GASTEIGER

@<TRIPOS>ATOM
      1 C          63.9573   91.0032   13.8355 C.ar    1  UNL1        0.1449
      2 C          63.5147   90.9526   12.4031 C.ar    1  UNL1        0.0718
      3 C          62.3400   90.2985   11.7382 C.ar    1  UNL1        0.0467
      4 C          62.4166   90.5917   10.2691 C.ar    1  UNL1        0.1797
      5 O          63.6387   91.4269   10.0261 O.2     1  UNL1       -0.4502
      6 C          64.3174   91.6499   11.3451 C.ar    1  UNL1        0.1514
      7 C          65.5625   92.3979   11.7193 C.ar    1  UNL1        0.0753
      8 C          66.0050   92.4486   13.1517 C.ar    1  UNL1        0.1546
      9 O          67.2503   93.1966   13.5259 O.2     1  UNL1       -0.4208
     10 C          67.6928   93.2473   14.9582 C.ar    1  UNL1        0.3459
     11 O          68.9380   93.9953   15.3324 O.2     1  UNL1       -0.2445
     12 C          66.8902   92.5499   16.0163 C.ar    1  UNL1        0.0825
     13 C          65.6451   91.8019   15.6421 C.ar    1  UNL1        0.0127
     14 C          65.2025   91.7513   14.2097 C.ar    1  UNL1        0.0690
     15 O          63.1547   90.3059   14.8936 O.3     1  UNL1       -0.4705
     16 C          63.6992   89.0772   15.5600 C.3     1  UNL1        0.2312
     17 C          64.2010   86.5555   15.1872 C.2     1  UNL1       -0.0443
     18 C          63.4925   86.2253   16.4674 C.3     1  UNL1        0.0261
     19 C          64.3043   87.9815   14.7334 C.2     1  UNL1        0.0122
     20 C          64.8061   85.4597   14.3606 C.3     1  UNL1        0.0265
     21 C          63.9746   84.2784   13.9569 C.3     1  UNL1        0.0297
     22 C          64.0286   82.9323   10.2239 C.3     1  UNL1        0.0260
     23 C          63.6561   83.7322   11.4369 C.2     1  UNL1       -0.0478
     24 C          62.5924   84.7857   11.3431 C.3     1  UNL1        0.0260
     25 C          64.3472   83.4785   12.7438 C.2     1  UNL1       -0.0342
@<TRIPOS>BOND
     1    22    23    1
     2    23    24    1
     3    23    25    2
     4    25    21    1
     5    21    20    1
     6    20    17    1
     7    17    18    1
     8    17    19    2
     9    19    16    1
    10    16    15    1
    11    15     1    1
    12     1     2   ar
    13     2     3   ar
    14     3     4   ar
    15     4     5   ar
    16     5     6   ar
    17     6     7   ar
    18     7     8   ar
    19     8     9   ar
    20     9    10   ar
    21    10    11    2
    22    10    12   ar
    23    12    13   ar
    24    13    14   ar
    25    14     1   ar
    26     6     2   ar
    27    14     8   ar
@<TRIPOS>MOLECULE
*****
 25 27 0 0 0
SMALL
GASTEIGER

@<TRIPOS>ATOM
      1 C          63.1298   89.8049   12.7170 C.ar    1  UNL1        0.1449
      2 C          62.2220   89.3150   11.6280 C.ar    1  UNL1        0.0718
      3 C          61.2072   88.2111   11.5881 C.ar    1  UNL1        0.0467
      4 C          60.6008   88.1884   10.2163 C.ar    1  UNL1        0.1797
      5 O          61.2408   89.2782    9.4084 O.2     1  UNL1       -0.4502
      6 C          62.2428   89.9745   10.2809 C.ar    1  UNL1        0.1514
      7 C          63.1713   91.1239   10.0228 C.ar    1  UNL1        0.0753
      8 C          64.0791   91.6138   11.1118 C.ar    1  UNL1        0.1546
      9 O          65.0077   92.7632   10.8537 O.2     1  UNL1       -0.4208
     10 C          65.9155   93.2531   11.9427 C.ar    1  UNL1        0.3459
     11 O          66.8441   94.4025   11.6846 O.2     1  UNL1       -0.2445
     12 C          65.8948   92.5936   13.2898 C.ar    1  UNL1        0.0825
     13 C          64.9662   91.4442   13.5479 C.ar    1  UNL1        0.0127
     14 C          64.0584   90.9543   12.4588 C.ar    1  UNL1        0.0690
     15 O          63.1090   89.1454   14.0641 O.3     1  UNL1       -0.4705
     16 C          64.2849   88.3330   14.5196 C.3     1  UNL1        0.2312
     17 C          63.9043   85.8915   15.3220 C.2     1  UNL1       -0.0443
     18 C          63.4436   86.4015   16.6553 C.3     1  UNL1        0.0261
     19 C          64.3249   86.8573   14.2542 C.2     1  UNL1        0.0122
     20 C          63.9443   84.4157   15.0566 C.3     1  UNL1        0.0265
     21 C          63.1161   83.8296   13.9518 C.3     1  UNL1        0.0297
     22 C          64.1704   83.0043   10.2158 C.3     1  UNL1        0.0260
     23 C          63.5016   83.6587   11.3882 C.2     1  UNL1       -0.0478
     24 C          62.5494   84.7970   11.1692 C.3     1  UNL1        0.0260
     25 C          63.7850   83.1751   12.7795 C.2     1  UNL1       -0.0342
@<TRIPOS>BOND
     1    22    23    1
     2    23    24    1
     3    23    25    2
     4    25    21    1
     5    21    20    1
     6    20    17    1
     7    17    18    1
     8    17    19    2
     9    19    16    1
    10    16    15    1
    11    15     1    1
    12     1     2   ar
    13     2     3   ar
    14     3     4   ar
    15     4     5   ar
    16     5     6   ar
    17     6     7   ar
    18     7     8   ar
    19     8     9   ar
    20     9    10   ar
    21    10    11    2
    22    10    12   ar
    23    12    13   ar
    24    13    14   ar
    25    14     1   ar
    26     6     2   ar
    27    14     8   ar
@<TRIPOS>MOLECULE
*****
 25 27 0 0 0
SMALL
GASTEIGER

@<TRIPOS>ATOM
      1 C          62.6852   88.2349   11.8965 C.ar    1  UNL1        0.1449
      2 C          61.8502   88.5076   10.6807 C.ar    1  UNL1        0.0718
      3 C          61.0208   87.6101    9.8108 C.ar    1  UNL1        0.0467
      4 C          60.4061   88.4503    8.7309 C.ar    1  UNL1        0.1797
      5 O          60.8555   89.8670    8.9333 O.2     1  UNL1       -0.4502
      6 C          61.7480   89.9024   10.1384 C.ar    1  UNL1        0.1514
      7 C          62.4808   91.0245   10.8119 C.ar    1  UNL1        0.0753
      8 C          63.3159   90.7519   12.0278 C.ar    1  UNL1        0.1546
      9 O          64.0487   91.8741   12.7014 O.2     1  UNL1       -0.4208
     10 C          64.8838   91.6014   13.9172 C.ar    1  UNL1        0.3459
     11 O          65.6166   92.7235   14.5908 O.2     1  UNL1       -0.2445
     12 C          64.9860   90.2066   14.4596 C.ar    1  UNL1        0.0825
     13 C          64.2531   89.0845   13.7860 C.ar    1  UNL1        0.0127
     14 C          63.4181   89.3571   12.5701 C.ar    1  UNL1        0.0690
     15 O          62.7874   86.8401   12.4389 O.3     1  UNL1       -0.4705
     16 C          62.2670   85.6839   11.6375 C.3     1  UNL1        0.2312
     17 C          63.4563   83.5567   10.7371 C.2     1  UNL1       -0.0443
     18 C          63.5520   84.1854    9.3785 C.3     1  UNL1        0.0261
     19 C          62.8138   84.3060   11.8666 C.2     1  UNL1        0.0122
     20 C          64.0032   82.1789   10.9661 C.3     1  UNL1        0.0265
     21 C          63.8356   81.5180   12.3022 C.3     1  UNL1        0.0297
     22 C          60.4445   80.5894   14.1430 C.3     1  UNL1        0.0260
     23 C          61.7301   81.2852   13.8063 C.2     1  UNL1       -0.0478
     24 C          62.1956   82.4441   14.6373 C.3     1  UNL1        0.0260
     25 C          62.5501   80.8221   12.6388 C.2     1  UNL1       -0.0342
@<TRIPOS>BOND
     1    22    23    1
     2    23    24    1
     3    23    25    2
     4    25    21    1
     5    21    20    1
     6    20    17    1
     7    17    18    1
     8    17    19    2
     9    19    16    1
    10    16    15    1
    11    15     1    1
    12     1     2   ar
    13     2     3   ar
    14     3     4   ar
    15     4     5   ar
    16     5     6   ar
    17     6     7   ar
    18     7     8   ar
    19     8     9   ar
    20     9    10   ar
    21    10    11    2
    22    10    12   ar
    23    12    13   ar
    24    13    14   ar
    25    14     1   ar
    26     6     2   ar
    27    14     8   ar
@<TRIPOS>MOLECULE
*****
 25 27 0 0 0
SMALL
GASTEIGER

@<TRIPOS>ATOM
      1 C          63.7399   83.6468   13.0847 C.ar    1  UNL1        0.1449
      2 C          63.0573   82.3326   13.3231 C.ar    1  UNL1        0.0718
      3 C          62.9935   81.0730   12.5112 C.ar    1  UNL1        0.0467
      4 C          62.1549   80.0805   13.2607 C.ar    1  UNL1        0.1797
      5 O          61.7005   80.7267   14.5358 O.2     1  UNL1       -0.4502
      6 C          62.2582   82.1186   14.5744 C.ar    1  UNL1        0.1514
      7 C          62.1417   83.2189   15.5872 C.ar    1  UNL1        0.0753
      8 C          62.8243   84.5331   15.3488 C.ar    1  UNL1        0.1546
      9 O          62.7078   85.6334   16.3617 O.2     1  UNL1       -0.4208
     10 C          63.3904   86.9476   16.1233 C.ar    1  UNL1        0.3459
     11 O          63.2738   88.0478   17.1362 O.2     1  UNL1       -0.2445
     12 C          64.1895   87.1617   14.8721 C.ar    1  UNL1        0.0825
     13 C          64.3060   86.0614   13.8592 C.ar    1  UNL1        0.0127
     14 C          63.6234   84.7471   14.0976 C.ar    1  UNL1        0.0690
     15 O          64.5391   83.8609   11.8334 O.3     1  UNL1       -0.4705
     16 C          63.8395   84.1114   10.5305 C.3     1  UNL1        0.2312
     17 C          62.1429   85.5849    9.2264 C.2     1  UNL1       -0.0443
     18 C          62.9682   85.4346    7.9829 C.3     1  UNL1        0.0261
     19 C          62.5786   84.9234   10.5002 C.2     1  UNL1        0.0122
     20 C          60.8820   86.3969    9.1961 C.3     1  UNL1        0.0265
     21 C          60.7295   87.5796   10.1060 C.3     1  UNL1        0.0297
     22 C          62.9559   90.8640   10.1806 C.3     1  UNL1        0.0260
     23 C          62.3723   89.5382   10.5698 C.2     1  UNL1       -0.0478
     24 C          62.8479   88.8450   11.8122 C.3     1  UNL1        0.0260
     25 C          61.3131   88.9055    9.7167 C.2     1  UNL1       -0.0342
@<TRIPOS>BOND
     1    22    23    1
     2    23    24    1
     3    23    25    2
     4    25    21    1
     5    21    20    1
     6    20    17    1
     7    17    18    1
     8    17    19    2
     9    19    16    1
    10    16    15    1
    11    15     1    1
    12     1     2   ar
    13     2     3   ar
    14     3     4   ar
    15     4     5   ar
    16     5     6   ar
    17     6     7   ar
    18     7     8   ar
    19     8     9   ar
    20     9    10   ar
    21    10    11    2
    22    10    12   ar
    23    12    13   ar
    24    13    14   ar
    25    14     1   ar
    26     6     2   ar
    27    14     8   ar
@<TRIPOS>MOLECULE
*****
 25 27 0 0 0
SMALL
GASTEIGER

@<TRIPOS>ATOM
      1 C          63.2004   90.3084   13.1107 C.ar    1  UNL1        0.1449
      2 C          64.3636   91.2461   12.9780 C.ar    1  UNL1        0.0718
      3 C          65.3680   91.7465   13.9734 C.ar    1  UNL1        0.0467
      4 C          66.3070   92.6726   13.2587 C.ar    1  UNL1        0.1797
      5 O          65.8830   92.7445   11.8217 O.2     1  UNL1       -0.4502
      6 C          64.6819   91.8628   11.6482 C.ar    1  UNL1        0.1514
      7 C          63.8369   91.5419   10.4511 C.ar    1  UNL1        0.0753
      8 C          62.6736   90.6042   10.5838 C.ar    1  UNL1        0.1546
      9 O          61.8286   90.2833    9.3867 O.2     1  UNL1       -0.4208
     10 C          60.6654   89.3457    9.5194 C.ar    1  UNL1        0.3459
     11 O          59.8204   89.0248    8.3223 O.2     1  UNL1       -0.2445
     12 C          60.3471   88.7289   10.8492 C.ar    1  UNL1        0.0825
     13 C          61.1921   89.0498   12.0463 C.ar    1  UNL1        0.0127
     14 C          62.3554   89.9875   11.9135 C.ar    1  UNL1        0.0690
     15 O          62.8821   89.6916   14.4405 O.3     1  UNL1       -0.4705
     16 C          63.9161   88.8718   15.1537 C.3     1  UNL1        0.2312
     17 C          64.1988   86.2903   15.2314 C.2     1  UNL1       -0.0443
     18 C          63.4700   86.2500   16.5418 C.3     1  UNL1        0.0261
     19 C          64.4219   87.6012   14.5374 C.2     1  UNL1        0.0122
     20 C          64.7046   85.0198   14.6151 C.3     1  UNL1        0.0265
     21 C          63.7563   84.1038   13.8998 C.3     1  UNL1        0.0297
     22 C          63.8853   83.3424   10.0070 C.3     1  UNL1        0.0260
     23 C          63.4921   83.9526   11.3196 C.2     1  UNL1       -0.0478
     24 C          62.4411   85.0221   11.3646 C.3     1  UNL1        0.0260
     25 C          64.1497   83.4935   12.5872 C.2     1  UNL1       -0.0342
@<TRIPOS>BOND
     1    22    23    1
     2    23    24    1
     3    23    25    2
     4    25    21    1
     5    21    20    1
     6    20    17    1
     7    17    18    1
     8    17    19    2
     9    19    16    1
    10    16    15    1
    11    15     1    1
    12     1     2   ar
    13     2     3   ar
    14     3     4   ar
    15     4     5   ar
    16     5     6   ar
    17     6     7   ar
    18     7     8   ar
    19     8     9   ar
    20     9    10   ar
    21    10    11    2
    22    10    12   ar
    23    12    13   ar
    24    13    14   ar
    25    14     1   ar
    26     6     2   ar
    27    14     8   ar
@<TRIPOS>MOLECULE
*****
 25 27 0 0 0
SMALL
GASTEIGER

@<TRIPOS>ATOM
      1 C          61.9777   87.0568   10.2776 C.ar    1  UNL1        0.1449
      2 C          60.9134   87.2458    9.2377 C.ar    1  UNL1        0.0718
      3 C          60.3316   86.3141    8.2162 C.ar    1  UNL1        0.0467
      4 C          59.2879   87.0659    7.4445 C.ar    1  UNL1        0.1797
      5 O          59.2247   88.4621    7.9890 O.2     1  UNL1       -0.4502
      6 C          60.2293   88.5733    9.0973 C.ar    1  UNL1        0.1514
      7 C          60.6096   89.7119    9.9968 C.ar    1  UNL1        0.0753
      8 C          61.6739   89.5229   11.0367 C.ar    1  UNL1        0.1546
      9 O          62.0541   90.6616   11.9362 O.2     1  UNL1       -0.4208
     10 C          63.1185   90.4726   12.9761 C.ar    1  UNL1        0.3459
     11 O          63.4988   91.6112   13.8755 O.2     1  UNL1       -0.2445
     12 C          63.8026   89.1451   13.1166 C.ar    1  UNL1        0.0825
     13 C          63.4224   88.0065   12.2171 C.ar    1  UNL1        0.0127
     14 C          62.3580   88.1955   11.1771 C.ar    1  UNL1        0.0690
     15 O          62.6619   85.7293   10.4182 O.3     1  UNL1       -0.4705
     16 C          62.1911   84.7486   11.4509 C.3     1  UNL1        0.2312
     17 C          62.6031   83.8578   13.8565 C.2     1  UNL1       -0.0443
     18 C          62.4933   82.4489   13.3535 C.3     1  UNL1        0.0261
     19 C          62.4520   85.0077   12.9052 C.2     1  UNL1        0.0122
     20 C          62.8640   84.1168   15.3107 C.3     1  UNL1        0.0265
     21 C          64.0150   84.9858   15.7230 C.3     1  UNL1        0.0297
     22 C          63.0969   88.7142   16.7262 C.3     1  UNL1        0.0260
     23 C          63.2254   87.2209   16.7864 C.2     1  UNL1       -0.0478
     24 C          62.6927   86.4693   17.9703 C.3     1  UNL1        0.0260
     25 C          63.8866   86.4791   15.6628 C.2     1  UNL1       -0.0342
@<TRIPOS>BOND
     1    22    23    1
     2    23    24    1
     3    23    25    2
     4    25    21    1
     5    21    20    1
     6    20    17    1
     7    17    18    1
     8    17    19    2
     9    19    16    1
    10    16    15    1
    11    15     1    1
    12     1     2   ar
    13     2     3   ar
    14     3     4   ar
    15     4     5   ar
    16     5     6   ar
    17     6     7   ar
    18     7     8   ar
    19     8     9   ar
    20     9    10   ar
    21    10    11    2
    22    10    12   ar
    23    12    13   ar
    24    13    14   ar
    25    14     1   ar
    26     6     2   ar
    27    14     8   ar
@<TRIPOS>MOLECULE
*****
 25 27 0 0 0
SMALL
GASTEIGER

@<TRIPOS>ATOM
      1 C          63.6370   83.1704   11.6391 C.ar    1  UNL1        0.1449
      2 C          63.2635   81.7251   11.4916 C.ar    1  UNL1        0.0718
      3 C          63.2327   80.8129   10.3012 C.ar    1  UNL1        0.0467
      4 C          62.7716   79.4626   10.7639 C.ar    1  UNL1        0.1797
      5 O          62.5175   79.5403   12.2402 O.2     1  UNL1       -0.4502
      6 C          62.8215   80.9386   12.6899 C.ar    1  UNL1        0.1514
      7 C          62.7530   81.5973   14.0358 C.ar    1  UNL1        0.0753
      8 C          63.1264   83.0425   14.1834 C.ar    1  UNL1        0.1546
      9 O          63.0579   83.7012   15.5293 O.2     1  UNL1       -0.4208
     10 C          63.4313   85.1464   15.6769 C.ar    1  UNL1        0.3459
     11 O          63.3628   85.8051   17.0227 O.2     1  UNL1       -0.2445
     12 C          63.8733   85.9331   14.4786 C.ar    1  UNL1        0.0825
     13 C          63.9419   85.2744   13.1327 C.ar    1  UNL1        0.0127
     14 C          63.5684   83.8290   12.9851 C.ar    1  UNL1        0.0690
     15 O          64.0790   83.9570   10.4408 O.3     1  UNL1       -0.4705
     16 C          63.0689   84.4187    9.4326 C.3     1  UNL1        0.2312
     17 C          61.9979   86.7247    9.9667 C.2     1  UNL1       -0.0443
     18 C          61.2255   86.1050   11.0934 C.3     1  UNL1        0.0261
     19 C          62.9196   85.8816    9.1363 C.2     1  UNL1        0.0122
     20 C          61.8485   88.1876    9.6704 C.3     1  UNL1        0.0265
     21 C          62.5158   89.2029   10.5501 C.3     1  UNL1        0.0297
     22 C          64.1338   89.4380   14.1663 C.3     1  UNL1        0.0260
     23 C          63.6728   89.8236   12.7920 C.2     1  UNL1       -0.0478
     24 C          63.9080   91.2158   12.2851 C.3     1  UNL1        0.0260
     25 C          62.9768   88.8172   11.9245 C.2     1  UNL1       -0.0342
@<TRIPOS>BOND
     1    22    23    1
     2    23    24    1
     3    23    25    2
     4    25    21    1
     5    21    20    1
     6    20    17    1
     7    17    18    1
     8    17    19    2
     9    19    16    1
    10    16    15    1
    11    15     1    1
    12     1     2   ar
    13     2     3   ar
    14     3     4   ar
    15     4     5   ar
    16     5     6   ar
    17     6     7   ar
    18     7     8   ar
    19     8     9   ar
    20     9    10   ar
    21    10    11    2
    22    10    12   ar
    23    12    13   ar
    24    13    14   ar
    25    14     1   ar
    26     6     2   ar
    27    14     8   ar
@<TRIPOS>MOLECULE
*****
 25 27 0 0 0
SMALL
GASTEIGER

@<TRIPOS>ATOM
      1 C          62.9413   87.0754   12.1202 C.ar    1  UNL1        0.1449
      2 C          63.4739   88.2488   12.8878 C.ar    1  UNL1        0.0718
      3 C          63.4339   89.7244   12.6211 C.ar    1  UNL1        0.0467
      4 C          64.1374   90.4185   13.7496 C.ar    1  UNL1        0.1797
      5 O          64.6120   89.3720   14.7137 O.2     1  UNL1       -0.4502
      6 C          64.2020   88.0310   14.1811 C.ar    1  UNL1        0.1514
      7 C          64.3975   86.6398   14.7066 C.ar    1  UNL1        0.0753
      8 C          63.8649   85.4664   13.9389 C.ar    1  UNL1        0.1546
      9 O          64.0605   84.0751   14.4645 O.2     1  UNL1       -0.4208
     10 C          63.5279   82.9016   13.6968 C.ar    1  UNL1        0.3459
     11 O          63.7234   81.5104   14.2224 O.2     1  UNL1       -0.2445
     12 C          62.7998   83.1194   12.4036 C.ar    1  UNL1        0.0825
     13 C          62.6042   84.5106   11.8780 C.ar    1  UNL1        0.0127
     14 C          63.1368   85.6841   12.6458 C.ar    1  UNL1        0.0690
     15 O          62.2131   87.2931   10.8269 O.3     1  UNL1       -0.4705
     16 C          60.7202   87.1578   10.7749 C.3     1  UNL1        0.2312
     17 C          60.0964   87.1330    8.2529 C.2     1  UNL1       -0.0443
     18 C          61.0036   85.9576    8.0401 C.3     1  UNL1        0.0261
     19 C          59.9547   87.7332    9.6203 C.2     1  UNL1        0.0122
     20 C          59.3310   87.7084    7.0983 C.3     1  UNL1        0.0265
     21 C          58.9847   89.1678    7.0807 C.3     1  UNL1        0.0297
     22 C          59.6566   91.9540    4.3356 C.3     1  UNL1        0.0260
     23 C          58.9328   91.0225    5.2621 C.2     1  UNL1       -0.0478
     24 C          57.4332   91.0143    5.2966 C.3     1  UNL1        0.0260
     25 C          59.7086   90.0992    6.1542 C.2     1  UNL1       -0.0342
@<TRIPOS>BOND
     1    22    23    1
     2    23    24    1
     3    23    25    2
     4    25    21    1
     5    21    20    1
     6    20    17    1
     7    17    18    1
     8    17    19    2
     9    19    16    1
    10    16    15    1
    11    15     1    1
    12     1     2   ar
    13     2     3   ar
    14     3     4   ar
    15     4     5   ar
    16     5     6   ar
    17     6     7   ar
    18     7     8   ar
    19     8     9   ar
    20     9    10   ar
    21    10    11    2
    22    10    12   ar
    23    12    13   ar
    24    13    14   ar
    25    14     1   ar
    26     6     2   ar
    27    14     8   ar
@<TRIPOS>MOLECULE
*****
 25 27 0 0 0
SMALL
GASTEIGER

@<TRIPOS>ATOM
      1 C          63.2514   84.6625   12.4710 C.ar    1  UNL1        0.1449
      2 C          63.6329   85.6629   13.5215 C.ar    1  UNL1        0.0718
      3 C          63.8621   87.1440   13.4610 C.ar    1  UNL1        0.0467
      4 C          64.2249   87.6136   14.8386 C.ar    1  UNL1        0.1797
      5 O          64.2200   86.4226   15.7506 O.2     1  UNL1       -0.4502
      6 C          63.8541   85.2170   14.9366 C.ar    1  UNL1        0.1514
      7 C          63.6938   83.7708   15.3010 C.ar    1  UNL1        0.0753
      8 C          63.3123   82.7705   14.2504 C.ar    1  UNL1        0.1546
      9 O          63.1520   81.3243   14.6150 O.2     1  UNL1       -0.4208
     10 C          62.7704   80.3239   13.5644 C.ar    1  UNL1        0.3459
     11 O          62.6101   78.8777   13.9288 O.2     1  UNL1       -0.2445
     12 C          62.5492   80.7697   12.1493 C.ar    1  UNL1        0.0825
     13 C          62.7095   82.2159   11.7849 C.ar    1  UNL1        0.0127
     14 C          63.0911   83.2163   12.8355 C.ar    1  UNL1        0.0690
     15 O          63.0301   85.1083   11.0559 O.3     1  UNL1       -0.4705
     16 C          61.7495   85.7908   10.6761 C.3     1  UNL1        0.2312
     17 C          60.9042   87.9494    9.5033 C.2     1  UNL1       -0.0443
     18 C          60.1718   87.1147    8.4949 C.3     1  UNL1        0.0261
     19 C          61.6930   87.2874   10.5939 C.2     1  UNL1        0.0122
     20 C          60.8476   89.4461    9.4211 C.3     1  UNL1        0.0265
     21 C          61.5052   90.2808   10.4799 C.3     1  UNL1        0.0297
     22 C          64.9843   92.1494   10.8726 C.3     1  UNL1        0.0260
     23 C          63.7623   91.3447   11.2032 C.2     1  UNL1       -0.0478
     24 C          63.5756   90.7992   12.5881 C.3     1  UNL1        0.0260
     25 C          62.7271   91.0855   10.1491 C.2     1  UNL1       -0.0342
@<TRIPOS>BOND
     1    22    23    1
     2    23    24    1
     3    23    25    2
     4    25    21    1
     5    21    20    1
     6    20    17    1
     7    17    18    1
     8    17    19    2
     9    19    16    1
    10    16    15    1
    11    15     1    1
    12     1     2   ar
    13     2     3   ar
    14     3     4   ar
    15     4     5   ar
    16     5     6   ar
    17     6     7   ar
    18     7     8   ar
    19     8     9   ar
    20     9    10   ar
    21    10    11    2
    22    10    12   ar
    23    12    13   ar
    24    13    14   ar
    25    14     1   ar
    26     6     2   ar
    27    14     8   ar
