@<TRIPOS>MOLECULE
*****
 56 59 0 0 0
SMALL
GASTEIGER

@<TRIPOS>ATOM
      1 C          62.1289   88.0128   10.9783 C.3     1  UNL1        0.0760
      2 C          60.4699   88.8731    9.1734 C.2     1  UNL1        0.2404
      3 O          60.0670   89.9981   10.0801 O.2     1  UNL1       -0.2733
      4 N          61.5009   87.8804    9.6226 N.am    1  UNL1       -0.3043
      5 H          61.7654   87.1420    9.0275 H       1  UNL1        0.1494
      6 C          59.8419   88.7408    7.8177 C.3     1  UNL1        0.1514
      7 N          60.1640   89.7350    6.7416 N.am    1  UNL1       -0.2824
      8 C          59.0573   90.3837    5.9642 C.2     1  UNL1        0.3046
      9 O          57.6284   90.0382    6.2629 O.2     1  UNL1       -0.2526
     10 N          59.3793   91.3778    4.8882 N.am    1  UNL1       -0.2567
     11 C          58.2726   92.0266    4.1108 C.3     1  UNL1        0.1168
     12 H          61.1018   89.9617    6.5456 H       1  UNL1        0.1514
     13 C          60.8081   91.7233    4.5895 C.3     1  UNL1        0.1413
     14 C          61.1644   92.3833    3.2905 C.ar    1  UNL1        0.0858
     15 C          60.2163   93.1040    2.3785 C.ar    1  UNL1        0.0530
     16 S          60.9973   93.6046    1.1998 S.2     1  UNL1       -0.0705
     17 C          62.4282   93.1934    1.3833 C.ar    1  UNL1        0.0875
     18 N          62.5314   92.4386    2.6754 N.ar    1  UNL1       -0.2453
     19 C          63.5575   93.4857    0.4403 C.3     1  UNL1        0.0465
     20 C          64.9761   93.2813    0.8828 C.3     1  UNL1        0.0069
     21 C          63.2681   93.9823   -0.9452 C.3     1  UNL1        0.0069
     22 C          58.8918   87.6143    7.5380 C.3     1  UNL1        0.0502
     23 C          59.2603   86.2106    7.9173 C.3     1  UNL1        0.0916
     24 C          61.9362   84.1718    5.8118 C.3     1  UNL1        0.0946
     25 C          61.3412   85.0935    6.8349 C.2     1  UNL1        0.2230
     26 O          62.2323   85.8199    7.7984 O.2     1  UNL1       -0.2751
     27 N          59.8552   85.2889    6.8943 N.am    1  UNL1       -0.3043
     28 H          59.2704   84.8122    6.2620 H       1  UNL1        0.1494
     29 C          62.9865   89.2020   11.2947 C.3     1  UNL1        0.0216
     30 C          62.7394   89.9935   12.5447 C.3     1  UNL1        0.0217
     31 C          63.8849   90.6541   13.2529 C.3     1  UNL1        0.0792
     32 N          64.8513   91.5056   12.4841 N.am    1  UNL1       -0.2720
     33 C          65.6953   92.5169   13.2019 C.2     1  UNL1        0.4019
     34 O          65.5729   92.6766   14.6883 O.2     1  UNL1       -0.2264
     35 H          64.9316   91.4007   11.5086 H       1  UNL1        0.1527
     36 O          66.6617   93.3683   12.4331 O.3     1  UNL1       -0.4291
     37 C          66.2227   94.6943   11.8863 C.3     1  UNL1        0.2447
     38 C          66.6678   95.1271   10.5209 C.ar    1  UNL1        0.0714
     39 C          67.0990   94.2213    9.4057 C.ar    1  UNL1        0.1053
     40 N          67.4577   95.0761    8.2265 N.ar    1  UNL1       -0.2350
     41 C          67.2482   96.5103    8.6128 C.ar    1  UNL1        0.1343
     42 S          66.7600   96.5418   10.0308 S.2     1  UNL1       -0.0652
     43 C          64.0639   90.4632   14.7299 C.3     1  UNL1        0.0460
     44 C          63.8663   89.1073   15.3403 C.ar    1  UNL1       -0.0205
     45 C          64.4439   87.8937   14.6744 C.ar    1  UNL1       -0.0042
     46 C          64.2463   86.5378   15.2848 C.ar    1  UNL1       -0.0003
     47 C          63.4712   86.3956   16.5611 C.ar    1  UNL1       -0.0000
     48 C          62.8936   87.6093   17.2270 C.ar    1  UNL1       -0.0003
     49 C          63.0912   88.9651   16.6166 C.ar    1  UNL1       -0.0042
     50 C          61.8994   86.9558   12.0177 C.3     1  UNL1        0.0459
     51 C          62.5300   85.6035   11.8641 C.ar    1  UNL1       -0.0205
     52 C          62.7618   84.7427   13.0704 C.ar    1  UNL1       -0.0042
     53 C          63.3924   83.3904   12.9169 C.ar    1  UNL1       -0.0003
     54 C          63.7913   82.8989   11.5571 C.ar    1  UNL1       -0.0000
     55 C          63.5596   83.7597   10.3506 C.ar    1  UNL1       -0.0003
     56 C          62.9289   85.1120   10.5042 C.ar    1  UNL1       -0.0042
@<TRIPOS>BOND
     1    24    25    1
     2    25    26    2
     3    25    27   am
     4    27    23    1
     5    23    22    1
     6     6    22    1
     7     6     7    1
     8     7     8   am
     9     8     9    2
    10     8    10   am
    11    10    11    1
    12    10    13    1
    13    13    14    1
    14    14    15   ar
    15    15    16   ar
    16    16    17   ar
    17    17    19    1
    18    19    20    1
    19    19    21    1
    20    17    18   ar
    21     6     2    1
    22     2     3    2
    23     2     4   am
    24     4     1    1
    25     1    29    1
    26    29    30    1
    27    31    30    1
    28    31    43    1
    29    43    44    1
    30    44    45   ar
    31    45    46   ar
    32    46    47   ar
    33    47    48   ar
    34    48    49   ar
    35    31    32    1
    36    32    33   am
    37    33    34    2
    38    33    36    1
    39    36    37    1
    40    37    38    1
    41    38    39   ar
    42    39    40   ar
    43    40    41   ar
    44    41    42   ar
    45     1    50    1
    46    50    51    1
    47    51    52   ar
    48    52    53   ar
    49    53    54   ar
    50    54    55   ar
    51    55    56   ar
    52    18    14   ar
    53    49    44   ar
    54    42    38   ar
    55    56    51   ar
    56    27    28    1
    57     7    12    1
    58     4     5    1
    59    32    35    1
@<TRIPOS>MOLECULE
*****
 56 59 0 0 0
SMALL
GASTEIGER

@<TRIPOS>ATOM
      1 C          62.2303   88.1116   10.7803 C.3     1  UNL1        0.0760
      2 C          60.3610   88.7616    9.0971 C.2     1  UNL1        0.2404
      3 O          59.7550   89.6736   10.1222 O.2     1  UNL1       -0.2733
      4 N          61.5987   87.9806    9.4261 N.am    1  UNL1       -0.3043
      5 H          61.9964   87.3820    8.7532 H       1  UNL1        0.1494
      6 C          59.7293   88.6306    7.7428 C.3     1  UNL1        0.1514
      7 N          59.8212   89.7601    6.7600 N.am    1  UNL1       -0.2824
      8 C          58.5830   90.2663    6.0813 C.2     1  UNL1        0.3046
      9 O          57.2529   89.6430    6.3855 O.2     1  UNL1       -0.2526
     10 N          58.6749   91.3957    5.0985 N.am    1  UNL1       -0.2567
     11 C          57.4367   91.9019    4.4198 C.3     1  UNL1        0.1168
     12 H          60.6942   90.1692    6.5604 H       1  UNL1        0.1514
     13 C          60.0049   92.0190    4.7944 C.3     1  UNL1        0.1413
     14 C          60.3530   92.3931    3.3841 C.ar    1  UNL1        0.0858
     15 C          61.7328   92.4312    2.7969 C.ar    1  UNL1        0.0530
     16 S          61.6149   92.8565    1.3633 S.2     1  UNL1       -0.0705
     17 C          60.1622   93.0812    1.0644 C.ar    1  UNL1        0.0875
     18 N          59.3823   92.7948    2.3133 N.ar    1  UNL1       -0.2453
     19 C          59.5899   93.5159   -0.2522 C.3     1  UNL1        0.0465
     20 C          60.3576   93.2782   -1.5188 C.3     1  UNL1        0.0069
     21 C          58.2500   94.1884   -0.3022 C.3     1  UNL1        0.0069
     22 C          59.0059   87.3703    7.3714 C.3     1  UNL1        0.0502
     23 C          59.6657   86.0388    7.5756 C.3     1  UNL1        0.0916
     24 C          62.9712   84.5281    5.9815 C.3     1  UNL1        0.0946
     25 C          61.5262   84.7119    6.3397 C.2     1  UNL1        0.2230
     26 O          60.4969   83.7526    5.8199 O.2     1  UNL1       -0.2751
     27 N          61.1106   85.8550    7.2175 N.am    1  UNL1       -0.3043
     28 H          61.7862   86.4846    7.5586 H       1  UNL1        0.1494
     29 C          62.9122   89.3897   11.1693 C.3     1  UNL1        0.0216
     30 C          62.6892   89.9737   12.5328 C.3     1  UNL1        0.0217
     31 C          63.8610   90.2885   13.4148 C.3     1  UNL1        0.0792
     32 N          64.2616   89.3326   14.4991 N.am    1  UNL1       -0.2720
     33 C          63.3182   89.0412   15.6284 C.2     1  UNL1        0.4019
     34 O          61.9742   89.7058   15.6733 O.2     1  UNL1       -0.2264
     35 H          65.1437   88.8964   14.4697 H       1  UNL1        0.1527
     36 O          63.7188   88.0854   16.7127 O.3     1  UNL1       -0.4291
     37 C          63.1064   86.7173   16.7705 C.3     1  UNL1        0.2447
     38 C          63.7007   85.5952   15.9721 C.ar    1  UNL1        0.0714
     39 C          64.8424   85.7088   15.0059 C.ar    1  UNL1        0.1053
     40 N          65.1051   84.3462   14.4363 N.ar    1  UNL1       -0.2350
     41 C          64.1256   83.3905   15.0505 C.ar    1  UNL1        0.1343
     42 S          63.2577   84.1624   15.9996 S.2     1  UNL1       -0.0652
     43 C          64.6321   91.5590   13.2124 C.3     1  UNL1        0.0460
     44 C          65.8180   91.8628   14.0793 C.ar    1  UNL1       -0.0205
     45 C          65.6160   92.3075   15.4976 C.ar    1  UNL1       -0.0042
     46 C          66.8019   92.6112   16.3644 C.ar    1  UNL1       -0.0003
     47 C          68.1897   92.4703   15.8130 C.ar    1  UNL1       -0.0000
     48 C          68.3917   92.0257   14.3948 C.ar    1  UNL1       -0.0003
     49 C          67.2059   91.7219   13.5279 C.ar    1  UNL1       -0.0042
     50 C          62.1800   86.9643   11.7454 C.3     1  UNL1        0.0459
     51 C          62.5965   85.5930   11.3027 C.ar    1  UNL1       -0.0205
     52 C          63.1402   85.3840    9.9205 C.ar    1  UNL1       -0.0042
     53 C          63.5567   84.0127    9.4778 C.ar    1  UNL1       -0.0003
     54 C          63.4295   82.8504   10.4174 C.ar    1  UNL1       -0.0000
     55 C          62.8858   83.0593   11.7997 C.ar    1  UNL1       -0.0003
     56 C          62.4693   84.4307   12.2424 C.ar    1  UNL1       -0.0042
@<TRIPOS>BOND
     1    24    25    1
     2    25    26    2
     3    25    27   am
     4    27    23    1
     5    23    22    1
     6     6    22    1
     7     6     7    1
     8     7     8   am
     9     8     9    2
    10     8    10   am
    11    10    11    1
    12    10    13    1
    13    13    14    1
    14    14    15   ar
    15    15    16   ar
    16    16    17   ar
    17    17    19    1
    18    19    20    1
    19    19    21    1
    20    17    18   ar
    21     6     2    1
    22     2     3    2
    23     2     4   am
    24     4     1    1
    25     1    29    1
    26    29    30    1
    27    31    30    1
    28    31    43    1
    29    43    44    1
    30    44    45   ar
    31    45    46   ar
    32    46    47   ar
    33    47    48   ar
    34    48    49   ar
    35    31    32    1
    36    32    33   am
    37    33    34    2
    38    33    36    1
    39    36    37    1
    40    37    38    1
    41    38    39   ar
    42    39    40   ar
    43    40    41   ar
    44    41    42   ar
    45     1    50    1
    46    50    51    1
    47    51    52   ar
    48    52    53   ar
    49    53    54   ar
    50    54    55   ar
    51    55    56   ar
    52    18    14   ar
    53    49    44   ar
    54    42    38   ar
    55    56    51   ar
    56    27    28    1
    57     7    12    1
    58     4     5    1
    59    32    35    1
@<TRIPOS>MOLECULE
*****
 56 59 0 0 0
SMALL
GASTEIGER

@<TRIPOS>ATOM
      1 C          61.8107   89.4871   11.5279 C.3     1  UNL1        0.0760
      2 C          62.4031   87.1067   12.3840 C.2     1  UNL1        0.2404
      3 O          61.1021   86.5894   11.8459 O.2     1  UNL1       -0.2733
      4 N          62.7575   88.5557   12.2250 N.am    1  UNL1       -0.3043
      5 H          63.6114   88.8952   12.5782 H       1  UNL1        0.1494
      6 C          63.3499   86.1753   13.0812 C.3     1  UNL1        0.1514
      7 N          63.2376   84.6945   12.8690 N.am    1  UNL1       -0.2824
      8 C          62.4237   83.8611   13.8139 C.2     1  UNL1        0.3046
      9 O          61.7220   84.5083   14.9710 O.2     1  UNL1       -0.2526
     10 N          62.3113   82.3804   13.6017 N.am    1  UNL1       -0.2567
     11 C          61.4974   81.5470   14.5466 C.3     1  UNL1        0.1168
     12 H          63.6981   84.2698   12.1095 H       1  UNL1        0.1514
     13 C          63.0129   81.7333   12.4446 C.3     1  UNL1        0.1413
     14 C          63.3615   82.5429   11.2309 C.ar    1  UNL1        0.0858
     15 C          64.6426   82.4616   10.4549 C.ar    1  UNL1        0.0530
     16 S          64.5631   83.4444    9.3245 S.2     1  UNL1       -0.0705
     17 C          63.2328   84.1332    9.4019 C.ar    1  UNL1        0.0875
     18 N          62.4902   83.5760   10.5801 N.ar    1  UNL1       -0.2453
     19 C          62.7329   85.1930    8.4655 C.3     1  UNL1        0.0465
     20 C          62.7737   86.6354    8.8749 C.3     1  UNL1        0.0069
     21 C          62.1922   84.8103    7.1197 C.3     1  UNL1        0.0069
     22 C          64.4089   86.7244   13.9905 C.3     1  UNL1        0.0502
     23 C          64.9389   85.8868   15.1163 C.3     1  UNL1        0.0916
     24 C          62.4721   86.5836   18.1461 C.3     1  UNL1        0.0946
     25 C          63.3037   86.8005   16.9166 C.2     1  UNL1        0.2230
     26 O          63.3315   88.1479   16.2580 O.2     1  UNL1       -0.2751
     27 N          64.1074   85.6699   16.3457 N.am    1  UNL1       -0.3043
     28 H          64.0891   84.7856   16.7780 H       1  UNL1        0.1494
     29 C          62.2623   90.8641   11.1408 C.3     1  UNL1        0.0216
     30 C          63.6665   91.0861   10.6625 C.3     1  UNL1        0.0217
     31 C          64.6555   91.7927   11.5416 C.3     1  UNL1        0.0792
     32 N          64.2619   92.2118   12.9271 N.am    1  UNL1       -0.2720
     33 C          64.4031   91.2506   14.0700 C.2     1  UNL1        0.4019
     34 O          64.9378   89.8703   13.8274 O.2     1  UNL1       -0.2264
     35 H          63.9110   93.1178   13.0863 H       1  UNL1        0.1527
     36 O          64.0096   91.6698   15.4554 O.3     1  UNL1       -0.4291
     37 C          64.9924   92.3930   16.3278 C.3     1  UNL1        0.2447
     38 C          66.3812   92.6625   15.8293 C.ar    1  UNL1        0.0714
     39 C          66.7518   93.5899   14.7101 C.ar    1  UNL1        0.1053
     40 N          68.2430   93.5525   14.5516 N.ar    1  UNL1       -0.2350
     41 C          68.7940   92.6021   15.5729 C.ar    1  UNL1        0.1343
     42 S          67.6433   92.0520   16.3625 S.2     1  UNL1       -0.0652
     43 C          66.0378   92.0801   11.0353 C.3     1  UNL1        0.0460
     44 C          66.3849   93.4528   10.5400 C.ar    1  UNL1       -0.0205
     45 C          67.2117   93.6155    9.2991 C.ar    1  UNL1       -0.0042
     46 C          67.5587   94.9882    8.8038 C.ar    1  UNL1       -0.0003
     47 C          67.0788   96.1981    9.5494 C.ar    1  UNL1       -0.0000
     48 C          66.2520   96.0353   10.7903 C.ar    1  UNL1       -0.0003
     49 C          65.9050   94.6627   11.2855 C.ar    1  UNL1       -0.0042
     50 C          60.4123   89.0416   11.2179 C.3     1  UNL1        0.0459
     51 C          60.0428   88.6508    9.8176 C.ar    1  UNL1       -0.0205
     52 C          60.1976   89.6370    8.6981 C.ar    1  UNL1       -0.0042
     53 C          59.8281   89.2463    7.2978 C.ar    1  UNL1       -0.0003
     54 C          59.3037   87.8693    7.0171 C.ar    1  UNL1       -0.0000
     55 C          59.1488   86.8830    8.1366 C.ar    1  UNL1       -0.0003
     56 C          59.5184   87.2737    9.5369 C.ar    1  UNL1       -0.0042
@<TRIPOS>BOND
     1    24    25    1
     2    25    26    2
     3    25    27   am
     4    27    23    1
     5    23    22    1
     6     6    22    1
     7     6     7    1
     8     7     8   am
     9     8     9    2
    10     8    10   am
    11    10    11    1
    12    10    13    1
    13    13    14    1
    14    14    15   ar
    15    15    16   ar
    16    16    17   ar
    17    17    19    1
    18    19    20    1
    19    19    21    1
    20    17    18   ar
    21     6     2    1
    22     2     3    2
    23     2     4   am
    24     4     1    1
    25     1    29    1
    26    29    30    1
    27    31    30    1
    28    31    43    1
    29    43    44    1
    30    44    45   ar
    31    45    46   ar
    32    46    47   ar
    33    47    48   ar
    34    48    49   ar
    35    31    32    1
    36    32    33   am
    37    33    34    2
    38    33    36    1
    39    36    37    1
    40    37    38    1
    41    38    39   ar
    42    39    40   ar
    43    40    41   ar
    44    41    42   ar
    45     1    50    1
    46    50    51    1
    47    51    52   ar
    48    52    53   ar
    49    53    54   ar
    50    54    55   ar
    51    55    56   ar
    52    18    14   ar
    53    49    44   ar
    54    42    38   ar
    55    56    51   ar
    56    27    28    1
    57     7    12    1
    58     4     5    1
    59    32    35    1
@<TRIPOS>MOLECULE
*****
 56 59 0 0 0
SMALL
GASTEIGER

@<TRIPOS>ATOM
      1 C          62.3092   89.2757   10.2896 C.3     1  UNL1        0.0760
      2 C          62.0282   86.7856   10.9756 C.2     1  UNL1        0.2404
      3 O          60.8367   87.1500   11.8106 O.2     1  UNL1       -0.2733
      4 N          62.7645   87.8484   10.2150 N.am    1  UNL1       -0.3043
      5 H          63.5466   87.6092    9.6670 H       1  UNL1        0.1494
      6 C          62.4835   85.3583   10.9010 C.3     1  UNL1        0.1514
      7 N          62.4106   84.4833   12.1172 N.am    1  UNL1       -0.2824
      8 C          62.8669   83.0563   12.0428 C.2     1  UNL1        0.3046
      9 O          63.3960   82.5043   10.7523 O.2     1  UNL1       -0.2526
     10 N          62.7940   82.1812   13.2589 N.am    1  UNL1       -0.2567
     11 C          63.2502   80.7542   13.1846 C.3     1  UNL1        0.1168
     12 H          62.0633   84.8455   12.9641 H       1  UNL1        0.1514
     13 C          62.2648   82.7332   14.5494 C.3     1  UNL1        0.1413
     14 C          62.8924   83.9527   15.1569 C.ar    1  UNL1        0.0858
     15 C          64.3026   84.4176   14.9440 C.ar    1  UNL1        0.0530
     16 S          64.5017   85.6736   15.7395 S.2     1  UNL1       -0.0705
     17 C          63.2146   85.9849   16.4442 C.ar    1  UNL1        0.0875
     18 N          62.2200   84.9214   16.0841 N.ar    1  UNL1       -0.2453
     19 C          62.9658   87.1545   17.3498 C.3     1  UNL1        0.0465
     20 C          63.0668   88.5522   16.8148 C.3     1  UNL1        0.0069
     21 C          62.6159   86.9263   18.7905 C.3     1  UNL1        0.0069
     22 C          63.0118   84.8061    9.6103 C.3     1  UNL1        0.0502
     23 C          62.7937   85.5549    8.3290 C.3     1  UNL1        0.0916
     24 C          61.7828   83.8313    4.9001 C.3     1  UNL1        0.0946
     25 C          61.6713   84.5454    6.2145 C.2     1  UNL1        0.2230
     26 O          60.3258   84.9641    6.7288 O.2     1  UNL1       -0.2751
     27 N          62.9052   84.8408    7.0146 N.am    1  UNL1       -0.3043
     28 H          63.7882   84.5660    6.6771 H       1  UNL1        0.1494
     29 C          63.3072   90.3699   10.5273 C.3     1  UNL1        0.0216
     30 C          63.5959   90.8310   11.9252 C.3     1  UNL1        0.0217
     31 C          64.6071   91.9129   12.1643 C.3     1  UNL1        0.0792
     32 N          65.4024   91.9283   13.4360 N.am    1  UNL1       -0.2720
     33 C          64.7536   91.5390   14.7312 C.2     1  UNL1        0.4019
     34 O          63.3094   91.1344   14.7547 O.2     1  UNL1       -0.2264
     35 H          66.3503   92.1938   13.4206 H       1  UNL1        0.1527
     36 O          65.5489   91.5544   16.0029 O.3     1  UNL1       -0.4291
     37 C          66.3686   92.7587   16.3603 C.3     1  UNL1        0.2447
     38 C          67.7427   92.9288   15.7834 C.ar    1  UNL1        0.0714
     39 C          68.3464   92.1041   14.6855 C.ar    1  UNL1        0.1053
     40 N          69.7312   92.6191   14.4266 N.ar    1  UNL1       -0.2350
     41 C          69.9834   93.7622   15.3645 C.ar    1  UNL1        0.1343
     42 S          68.7545   93.9536   16.2030 S.2     1  UNL1       -0.0652
     43 C          64.8228   92.9794   11.1318 C.3     1  UNL1        0.0460
     44 C          66.1589   93.1175   10.4641 C.ar    1  UNL1       -0.0205
     45 C          67.1470   91.9905   10.5232 C.ar    1  UNL1       -0.0042
     46 C          68.4830   92.1288    9.8555 C.ar    1  UNL1       -0.0003
     47 C          68.8310   93.3940    9.1287 C.ar    1  UNL1       -0.0000
     48 C          67.8429   94.5209    9.0696 C.ar    1  UNL1       -0.0003
     49 C          66.5068   94.3827    9.7373 C.ar    1  UNL1       -0.0042
     50 C          60.8557   89.6087   10.1265 C.3     1  UNL1        0.0459
     51 C          60.1034   89.1156    8.9261 C.ar    1  UNL1       -0.0205
     52 C          60.0067   89.9712    7.6980 C.ar    1  UNL1       -0.0042
     53 C          59.2545   89.4781    6.4976 C.ar    1  UNL1       -0.0003
     54 C          58.5988   88.1293    6.5254 C.ar    1  UNL1       -0.0000
     55 C          58.6955   87.2735    7.7536 C.ar    1  UNL1       -0.0003
     56 C          59.4477   87.7667    8.9540 C.ar    1  UNL1       -0.0042
@<TRIPOS>BOND
     1    24    25    1
     2    25    26    2
     3    25    27   am
     4    27    23    1
     5    23    22    1
     6     6    22    1
     7     6     7    1
     8     7     8   am
     9     8     9    2
    10     8    10   am
    11    10    11    1
    12    10    13    1
    13    13    14    1
    14    14    15   ar
    15    15    16   ar
    16    16    17   ar
    17    17    19    1
    18    19    20    1
    19    19    21    1
    20    17    18   ar
    21     6     2    1
    22     2     3    2
    23     2     4   am
    24     4     1    1
    25     1    29    1
    26    29    30    1
    27    31    30    1
    28    31    43    1
    29    43    44    1
    30    44    45   ar
    31    45    46   ar
    32    46    47   ar
    33    47    48   ar
    34    48    49   ar
    35    31    32    1
    36    32    33   am
    37    33    34    2
    38    33    36    1
    39    36    37    1
    40    37    38    1
    41    38    39   ar
    42    39    40   ar
    43    40    41   ar
    44    41    42   ar
    45     1    50    1
    46    50    51    1
    47    51    52   ar
    48    52    53   ar
    49    53    54   ar
    50    54    55   ar
    51    55    56   ar
    52    18    14   ar
    53    49    44   ar
    54    42    38   ar
    55    56    51   ar
    56    27    28    1
    57     7    12    1
    58     4     5    1
    59    32    35    1
@<TRIPOS>MOLECULE
*****
 56 59 0 0 0
SMALL
GASTEIGER

@<TRIPOS>ATOM
      1 C          61.6740   87.4938   11.1245 C.3     1  UNL1        0.0760
      2 C          60.3361   88.5479    9.1626 C.2     1  UNL1        0.2404
      3 O          60.1512   89.8029    9.9629 O.2     1  UNL1       -0.2733
      4 N          61.0975   87.3933    9.7434 N.am    1  UNL1       -0.3043
      5 H          61.2189   86.5695    9.2181 H       1  UNL1        0.1494
      6 C          59.7597   88.4473    7.7814 C.3     1  UNL1        0.1514
      7 N          59.9411   89.5750    6.8090 N.am    1  UNL1       -0.2824
      8 C          58.7473   90.1831    6.1345 C.2     1  UNL1        0.3046
      9 O          57.3720   89.6635    6.4324 O.2     1  UNL1       -0.2526
     10 N          58.9287   91.3108    5.1622 N.am    1  UNL1       -0.2567
     11 C          57.7348   91.9188    4.4877 C.3     1  UNL1        0.1168
     12 H          60.8437   89.9161    6.6136 H       1  UNL1        0.1514
     13 C          60.3039   91.8303    4.8644 C.3     1  UNL1        0.1413
     14 C          60.5799   92.5174    3.5598 C.ar    1  UNL1        0.0858
     15 C          61.7742   92.2931    2.6806 C.ar    1  UNL1        0.0530
     16 S          61.6425   93.1864    1.4828 S.2     1  UNL1       -0.0705
     17 C          60.3666   93.9629    1.6219 C.ar    1  UNL1        0.0875
     18 N          59.7099   93.5494    2.9055 N.ar    1  UNL1       -0.2453
     19 C          59.8399   94.9751    0.6482 C.3     1  UNL1        0.0465
     20 C          58.6677   94.6372   -0.2244 C.3     1  UNL1        0.0069
     21 C          60.4855   96.3254    0.5473 C.3     1  UNL1        0.0069
     22 C          59.0018   87.2191    7.3726 C.3     1  UNL1        0.0502
     23 C          59.5295   85.8601    7.7255 C.3     1  UNL1        0.0916
     24 C          62.5262   84.1674    5.7495 C.3     1  UNL1        0.0946
     25 C          61.7758   84.9692    6.7713 C.2     1  UNL1        0.2230
     26 O          62.5211   85.6817    7.8606 O.2     1  UNL1       -0.2751
     27 N          60.2799   85.0584    6.7037 N.am    1  UNL1       -0.3043
     28 H          59.7907   84.5907    5.9887 H       1  UNL1        0.1494
     29 C          62.3530   88.7571   11.5637 C.3     1  UNL1        0.0216
     30 C          63.6150   88.6884   12.3715 C.3     1  UNL1        0.0217
     31 C          63.9563   89.7948   13.3252 C.3     1  UNL1        0.0792
     32 N          64.7732   90.9627   12.8576 N.am    1  UNL1       -0.2720
     33 C          64.3275   91.7617   11.6689 C.2     1  UNL1        0.4019
     34 O          63.0651   91.3928   10.9478 O.2     1  UNL1       -0.2264
     35 H          65.6018   91.2049   13.3309 H       1  UNL1        0.1527
     36 O          65.1444   92.9297   11.2013 O.3     1  UNL1       -0.4291
     37 C          66.6050   93.0048   11.5347 C.3     1  UNL1        0.2447
     38 C          67.0550   92.8988   12.9616 C.ar    1  UNL1        0.0714
     39 C          68.0302   91.8978   13.5065 C.ar    1  UNL1        0.1053
     40 N          68.1868   92.1555   14.9759 N.ar    1  UNL1       -0.2350
     41 C          67.3082   93.3158   15.3392 C.ar    1  UNL1        0.1343
     42 S          66.6088   93.7751   14.0943 S.2     1  UNL1       -0.0652
     43 C          63.4806   89.7332   14.7464 C.3     1  UNL1        0.0460
     44 C          63.5058   88.4307   15.4900 C.ar    1  UNL1       -0.0205
     45 C          64.2775   87.2679   14.9400 C.ar    1  UNL1       -0.0042
     46 C          64.3027   85.9655   15.6836 C.ar    1  UNL1       -0.0003
     47 C          63.5562   85.8258   16.9772 C.ar    1  UNL1       -0.0000
     48 C          62.7846   86.9886   17.5272 C.ar    1  UNL1       -0.0003
     49 C          62.7594   88.2910   16.7836 C.ar    1  UNL1       -0.0042
     50 C          61.5713   86.3310   12.0665 C.3     1  UNL1        0.0459
     51 C          62.4756   85.1463   11.8969 C.ar    1  UNL1       -0.0205
     52 C          62.9447   84.3825   13.0996 C.ar    1  UNL1       -0.0042
     53 C          63.8490   83.1978   12.9299 C.ar    1  UNL1       -0.0003
     54 C          64.2841   82.7768   11.5576 C.ar    1  UNL1       -0.0000
     55 C          63.8149   83.5406   10.3548 C.ar    1  UNL1       -0.0003
     56 C          62.9107   84.7253   10.5244 C.ar    1  UNL1       -0.0042
@<TRIPOS>BOND
     1    24    25    1
     2    25    26    2
     3    25    27   am
     4    27    23    1
     5    23    22    1
     6     6    22    1
     7     6     7    1
     8     7     8   am
     9     8     9    2
    10     8    10   am
    11    10    11    1
    12    10    13    1
    13    13    14    1
    14    14    15   ar
    15    15    16   ar
    16    16    17   ar
    17    17    19    1
    18    19    20    1
    19    19    21    1
    20    17    18   ar
    21     6     2    1
    22     2     3    2
    23     2     4   am
    24     4     1    1
    25     1    29    1
    26    29    30    1
    27    31    30    1
    28    31    43    1
    29    43    44    1
    30    44    45   ar
    31    45    46   ar
    32    46    47   ar
    33    47    48   ar
    34    48    49   ar
    35    31    32    1
    36    32    33   am
    37    33    34    2
    38    33    36    1
    39    36    37    1
    40    37    38    1
    41    38    39   ar
    42    39    40   ar
    43    40    41   ar
    44    41    42   ar
    45     1    50    1
    46    50    51    1
    47    51    52   ar
    48    52    53   ar
    49    53    54   ar
    50    54    55   ar
    51    55    56   ar
    52    18    14   ar
    53    49    44   ar
    54    42    38   ar
    55    56    51   ar
    56    27    28    1
    57     7    12    1
    58     4     5    1
    59    32    35    1
@<TRIPOS>MOLECULE
*****
 56 59 0 0 0
SMALL
GASTEIGER

@<TRIPOS>ATOM
      1 C          62.7284   89.4295   12.0523 C.3     1  UNL1        0.0760
      2 C          64.0814   91.4570   11.1528 C.2     1  UNL1        0.2404
      3 O          63.4919   91.2457    9.7898 O.2     1  UNL1       -0.2733
      4 N          63.6997   90.5489   12.2841 N.am    1  UNL1       -0.3043
      5 H          64.0866   90.6875   13.1787 H       1  UNL1        0.1494
      6 C          65.0527   92.5763   11.3847 C.3     1  UNL1        0.1514
      7 N          65.7028   92.7393   12.7267 N.am    1  UNL1       -0.2824
      8 C          67.1843   92.5532   12.8699 C.2     1  UNL1        0.3046
      9 O          68.0157   92.2041   11.6711 O.2     1  UNL1       -0.2526
     10 N          67.8344   92.7162   14.2118 N.am    1  UNL1       -0.2567
     11 C          69.3159   92.5301   14.3550 C.3     1  UNL1        0.1168
     12 H          65.1571   92.9685   13.5134 H       1  UNL1        0.1514
     13 C          67.0030   93.0653   15.4105 C.3     1  UNL1        0.1413
     14 C          65.8231   92.2152   15.7783 C.ar    1  UNL1        0.0858
     15 C          64.7455   92.5782   16.7565 C.ar    1  UNL1        0.0530
     16 S          63.7702   91.4401   16.8153 S.2     1  UNL1       -0.0705
     17 C          64.2450   90.3736   15.8734 C.ar    1  UNL1        0.0875
     18 N          65.5138   90.8526   15.2325 N.ar    1  UNL1       -0.2453
     19 C          63.5697   89.0590   15.6173 C.3     1  UNL1        0.0465
     20 C          62.1414   88.8569   16.0286 C.3     1  UNL1        0.0069
     21 C          64.3226   87.9464   14.9500 C.3     1  UNL1        0.0069
     22 C          65.3738   93.5326   10.2746 C.3     1  UNL1        0.0502
     23 C          65.4403   95.0057   10.5494 C.3     1  UNL1        0.0916
     24 C          67.6384   96.8548    7.8110 C.3     1  UNL1        0.0946
     25 C          67.2349   95.9060    8.9005 C.2     1  UNL1        0.2230
     26 O          68.2222   94.9089    9.4305 O.2     1  UNL1       -0.2751
     27 N          65.8439   95.9544    9.4600 N.am    1  UNL1       -0.3043
     28 H          65.1959   96.6089    9.1121 H       1  UNL1        0.1494
     29 C          63.2100   88.0090   12.0405 C.3     1  UNL1        0.0216
     30 C          62.2278   86.8854   11.8898 C.3     1  UNL1        0.0217
     31 C          62.3794   85.9023   10.7669 C.3     1  UNL1        0.0792
     32 N          62.1722   84.4382   11.0189 N.am    1  UNL1       -0.2720
     33 C          63.3137   83.4795   10.8521 C.2     1  UNL1        0.4019
     34 O          64.6625   83.9849   10.4333 O.2     1  UNL1       -0.2264
     35 H          61.2869   84.1065   11.2937 H       1  UNL1        0.1527
     36 O          63.1065   82.0154   11.1040 O.3     1  UNL1       -0.4291
     37 C          63.1349   81.4844   12.5065 C.3     1  UNL1        0.2447
     38 C          63.1832   82.4335   13.6671 C.ar    1  UNL1        0.0714
     39 C          62.0657   82.7071   14.6294 C.ar    1  UNL1        0.1053
     40 N          62.5493   83.7184   15.6261 N.ar    1  UNL1       -0.2350
     41 C          63.9659   84.0697   15.2798 C.ar    1  UNL1        0.1343
     42 S          64.3576   83.2756   14.0690 S.2     1  UNL1       -0.0652
     43 C          62.7383   86.3833    9.3922 C.3     1  UNL1        0.0460
     44 C          62.2319   85.6506    8.1853 C.ar    1  UNL1       -0.0205
     45 C          60.7663   85.6545    7.8657 C.ar    1  UNL1       -0.0042
     46 C          60.2600   84.9218    6.6588 C.ar    1  UNL1       -0.0003
     47 C          61.2192   84.1852    5.7714 C.ar    1  UNL1       -0.0000
     48 C          62.6847   84.1813    6.0910 C.ar    1  UNL1       -0.0003
     49 C          63.1910   84.9140    7.2979 C.ar    1  UNL1       -0.0042
     50 C          61.2755   89.7308   11.8322 C.3     1  UNL1        0.0459
     51 C          60.5910   89.2534   10.5858 C.ar    1  UNL1       -0.0205
     52 C          59.6714   88.0697   10.6416 C.ar    1  UNL1       -0.0042
     53 C          58.9869   87.5923    9.3951 C.ar    1  UNL1       -0.0003
     54 C          59.2220   88.2986    8.0929 C.ar    1  UNL1       -0.0000
     55 C          60.1417   89.4824    8.0371 C.ar    1  UNL1       -0.0003
     56 C          60.8261   89.9598    9.2835 C.ar    1  UNL1       -0.0042
@<TRIPOS>BOND
     1    24    25    1
     2    25    26    2
     3    25    27   am
     4    27    23    1
     5    23    22    1
     6     6    22    1
     7     6     7    1
     8     7     8   am
     9     8     9    2
    10     8    10   am
    11    10    11    1
    12    10    13    1
    13    13    14    1
    14    14    15   ar
    15    15    16   ar
    16    16    17   ar
    17    17    19    1
    18    19    20    1
    19    19    21    1
    20    17    18   ar
    21     6     2    1
    22     2     3    2
    23     2     4   am
    24     4     1    1
    25     1    29    1
    26    29    30    1
    27    31    30    1
    28    31    43    1
    29    43    44    1
    30    44    45   ar
    31    45    46   ar
    32    46    47   ar
    33    47    48   ar
    34    48    49   ar
    35    31    32    1
    36    32    33   am
    37    33    34    2
    38    33    36    1
    39    36    37    1
    40    37    38    1
    41    38    39   ar
    42    39    40   ar
    43    40    41   ar
    44    41    42   ar
    45     1    50    1
    46    50    51    1
    47    51    52   ar
    48    52    53   ar
    49    53    54   ar
    50    54    55   ar
    51    55    56   ar
    52    18    14   ar
    53    49    44   ar
    54    42    38   ar
    55    56    51   ar
    56    27    28    1
    57     7    12    1
    58     4     5    1
    59    32    35    1
@<TRIPOS>MOLECULE
*****
 56 59 0 0 0
SMALL
GASTEIGER

@<TRIPOS>ATOM
      1 C          62.0426   86.7310   10.4206 C.3     1  UNL1        0.0760
      2 C          63.1716   85.5652   12.4494 C.2     1  UNL1        0.2404
      3 O          63.0712   84.2441   11.7462 O.2     1  UNL1       -0.2733
      4 N          62.6573   86.8087   11.7867 N.am    1  UNL1       -0.3043
      5 H          62.7232   87.6758   12.2482 H       1  UNL1        0.1494
      6 C          63.7864   85.6429   13.8155 C.3     1  UNL1        0.1514
      7 N          63.3862   86.7402   14.7567 N.am    1  UNL1       -0.2824
      8 C          63.3430   86.4826   16.2338 C.2     1  UNL1        0.3046
      9 O          63.7000   85.1278   16.7697 O.2     1  UNL1       -0.2526
     10 N          62.9428   87.5798   17.1751 N.am    1  UNL1       -0.2567
     11 C          62.8996   87.3223   18.6522 C.3     1  UNL1        0.1168
     12 H          63.1519   87.6293   14.4050 H       1  UNL1        0.1514
     13 C          62.5858   88.9346   16.6392 C.3     1  UNL1        0.1413
     14 C          63.5869   89.7111   15.8361 C.ar    1  UNL1        0.0858
     15 C          63.9932   89.4265   14.4205 C.ar    1  UNL1        0.0530
     16 S          65.0148   90.4481   14.0171 S.2     1  UNL1       -0.0705
     17 C          65.2398   91.3642   15.1835 C.ar    1  UNL1        0.0875
     18 N          64.3573   90.9087   16.3076 N.ar    1  UNL1       -0.2453
     19 C          66.1820   92.5308   15.2193 C.3     1  UNL1        0.0465
     20 C          67.0384   92.7663   16.4280 C.3     1  UNL1        0.0069
     21 C          66.2676   93.4620   14.0464 C.3     1  UNL1        0.0069
     22 C          64.8012   84.6233   14.2403 C.3     1  UNL1        0.0502
     23 C          64.4553   83.1640   14.2127 C.3     1  UNL1        0.0916
     24 C          61.0467   81.1319   14.1627 C.3     1  UNL1        0.0946
     25 C          62.4348   81.5804   13.8131 C.2     1  UNL1        0.2230
     26 O          63.1904   80.8936   12.7143 O.2     1  UNL1       -0.2751
     27 N          63.0673   82.7156   14.5623 N.am    1  UNL1       -0.3043
     28 H          62.5713   83.1663   15.2835 H       1  UNL1        0.1494
     29 C          60.5829   87.0237   10.2373 C.3     1  UNL1        0.0216
     30 C          60.1155   88.4409   10.0854 C.3     1  UNL1        0.0217
     31 C          60.3954   89.1911    8.8169 C.3     1  UNL1        0.0792
     32 N          61.3497   90.3484    8.8250 N.am    1  UNL1       -0.2720
     33 C          62.2003   90.6107   10.0324 C.2     1  UNL1        0.4019
     34 O          62.0967   89.7156   11.2316 O.2     1  UNL1       -0.2264
     35 H          61.4177   90.9359    8.0379 H       1  UNL1        0.1527
     36 O          63.1546   91.7680   10.0405 O.3     1  UNL1       -0.4291
     37 C          64.3822   91.7218   10.9012 C.3     1  UNL1        0.2447
     38 C          65.5165   92.6683   10.6412 C.ar    1  UNL1        0.0714
     39 C          66.9668   92.2994   10.5396 C.ar    1  UNL1        0.1053
     40 N          67.7463   93.5529   10.2728 N.ar    1  UNL1       -0.2350
     41 C          66.7777   94.6965   10.2095 C.ar    1  UNL1        0.1343
     42 S          65.3995   94.1497   10.4373 S.2     1  UNL1       -0.0652
     43 C          59.7210   88.7841    7.5404 C.3     1  UNL1        0.0460
     44 C          59.4039   89.8149    6.4979 C.ar    1  UNL1       -0.0205
     45 C          60.5093   90.4354    5.6960 C.ar    1  UNL1       -0.0042
     46 C          60.1921   91.4662    4.6535 C.ar    1  UNL1       -0.0003
     47 C          58.7695   91.8765    4.4129 C.ar    1  UNL1       -0.0000
     48 C          57.6641   91.2560    5.2148 C.ar    1  UNL1       -0.0003
     49 C          57.9813   90.2252    6.2573 C.ar    1  UNL1       -0.0042
     50 C          62.8876   86.3607    9.2379 C.3     1  UNL1        0.0459
     51 C          62.2740   85.6407    8.0737 C.ar    1  UNL1       -0.0205
     52 C          60.7903   85.6896    7.8592 C.ar    1  UNL1       -0.0042
     53 C          60.1767   84.9697    6.6951 C.ar    1  UNL1       -0.0003
     54 C          61.0468   84.2009    5.7455 C.ar    1  UNL1       -0.0000
     55 C          62.5306   84.1520    5.9600 C.ar    1  UNL1       -0.0003
     56 C          63.1442   84.8719    7.1241 C.ar    1  UNL1       -0.0042
@<TRIPOS>BOND
     1    24    25    1
     2    25    26    2
     3    25    27   am
     4    27    23    1
     5    23    22    1
     6     6    22    1
     7     6     7    1
     8     7     8   am
     9     8     9    2
    10     8    10   am
    11    10    11    1
    12    10    13    1
    13    13    14    1
    14    14    15   ar
    15    15    16   ar
    16    16    17   ar
    17    17    19    1
    18    19    20    1
    19    19    21    1
    20    17    18   ar
    21     6     2    1
    22     2     3    2
    23     2     4   am
    24     4     1    1
    25     1    29    1
    26    29    30    1
    27    31    30    1
    28    31    43    1
    29    43    44    1
    30    44    45   ar
    31    45    46   ar
    32    46    47   ar
    33    47    48   ar
    34    48    49   ar
    35    31    32    1
    36    32    33   am
    37    33    34    2
    38    33    36    1
    39    36    37    1
    40    37    38    1
    41    38    39   ar
    42    39    40   ar
    43    40    41   ar
    44    41    42   ar
    45     1    50    1
    46    50    51    1
    47    51    52   ar
    48    52    53   ar
    49    53    54   ar
    50    54    55   ar
    51    55    56   ar
    52    18    14   ar
    53    49    44   ar
    54    42    38   ar
    55    56    51   ar
    56    27    28    1
    57     7    12    1
    58     4     5    1
    59    32    35    1
@<TRIPOS>MOLECULE
*****
 56 59 0 0 0
SMALL
GASTEIGER

@<TRIPOS>ATOM
      1 C          61.9697   88.0019   11.0793 C.3     1  UNL1        0.0760
      2 C          60.2998   88.7059    9.2176 C.2     1  UNL1        0.2404
      3 O          59.7324   89.7575   10.1242 O.2     1  UNL1       -0.2733
      4 N          61.4186   87.8280    9.6951 N.am    1  UNL1       -0.3043
      5 H          61.7910   87.1378    9.1001 H       1  UNL1        0.1494
      6 C          59.7487   88.5321    7.8334 C.3     1  UNL1        0.1514
      7 N          59.8450   89.6532    6.8415 N.am    1  UNL1       -0.2824
      8 C          58.6033   90.1900    6.1935 C.2     1  UNL1        0.3046
      9 O          57.2652   89.6057    6.5374 O.2     1  UNL1       -0.2526
     10 N          58.6995   91.3111    5.2016 N.am    1  UNL1       -0.2567
     11 C          57.4578   91.8479    4.5536 C.3     1  UNL1        0.1168
     12 H          60.7232   90.0367    6.6158 H       1  UNL1        0.1514
     13 C          60.0376   91.8955    4.8578 C.3     1  UNL1        0.1413
     14 C          60.3222   92.3434    3.4548 C.ar    1  UNL1        0.0858
     15 C          61.6709   92.3867    2.7996 C.ar    1  UNL1        0.0530
     16 S          61.4904   92.8967    1.4006 S.2     1  UNL1       -0.0705
     17 C          60.0301   93.1685    1.1911 C.ar    1  UNL1        0.0875
     18 N          59.3082   92.8266    2.4607 N.ar    1  UNL1       -0.2453
     19 C          59.4022   93.6907   -0.0671 C.3     1  UNL1        0.0465
     20 C          58.9123   95.1071   -0.1289 C.3     1  UNL1        0.0069
     21 C          59.2640   92.7964   -1.2634 C.3     1  UNL1        0.0069
     22 C          59.1012   87.2372    7.4411 C.3     1  UNL1        0.0502
     23 C          59.8104   85.9388    7.6887 C.3     1  UNL1        0.0916
     24 C          63.0825   84.5309    5.9391 C.3     1  UNL1        0.0946
     25 C          61.6456   84.6890    6.3397 C.2     1  UNL1        0.2230
     26 O          60.6072   83.7554    5.7918 O.2     1  UNL1       -0.2751
     27 N          61.2472   85.7806    7.2882 N.am    1  UNL1       -0.3043
     28 H          61.9287   86.3933    7.6477 H       1  UNL1        0.1494
     29 C          62.4384   89.3516   11.5359 C.3     1  UNL1        0.0216
     30 C          63.3367   90.1704   10.6570 C.3     1  UNL1        0.0217
     31 C          64.2047   91.2364   11.2573 C.3     1  UNL1        0.0792
     32 N          64.9546   90.9657   12.5279 N.am    1  UNL1       -0.2720
     33 C          64.2571   91.0857   13.8505 C.2     1  UNL1        0.4019
     34 O          62.8098   91.4763   13.9024 O.2     1  UNL1       -0.2264
     35 H          65.9045   90.7093   12.4938 H       1  UNL1        0.1527
     36 O          65.0069   90.8150   15.1211 O.3     1  UNL1       -0.4291
     37 C          65.6865   91.9393   15.8450 C.3     1  UNL1        0.2447
     38 C          67.0741   92.3533   15.4534 C.ar    1  UNL1        0.0714
     39 C          67.8386   91.8584   14.2616 C.ar    1  UNL1        0.1053
     40 N          69.1778   92.5341   14.2566 N.ar    1  UNL1       -0.2350
     41 C          69.2409   93.4467   15.4453 C.ar    1  UNL1        0.1343
     42 S          67.9408   93.3349   16.1850 S.2     1  UNL1       -0.0652
     43 C          64.3229   92.5730   10.5869 C.3     1  UNL1        0.0460
     44 C          65.6721   93.0998   10.1968 C.ar    1  UNL1       -0.0205
     45 C          66.8050   92.1490    9.9470 C.ar    1  UNL1       -0.0042
     46 C          68.1541   92.6758    9.5569 C.ar    1  UNL1       -0.0003
     47 C          68.3704   94.1534    9.4165 C.ar    1  UNL1       -0.0000
     48 C          67.2375   95.1043    9.6663 C.ar    1  UNL1       -0.0003
     49 C          65.8884   94.5775   10.0564 C.ar    1  UNL1       -0.0042
     50 C          62.0521   86.8259   12.0069 C.3     1  UNL1        0.0459
     51 C          62.7734   85.5822   11.5790 C.ar    1  UNL1       -0.0205
     52 C          63.4407   84.7124   12.6028 C.ar    1  UNL1       -0.0042
     53 C          64.1619   83.4688   12.1749 C.ar    1  UNL1       -0.0003
     54 C          64.2160   83.0950   10.7232 C.ar    1  UNL1       -0.0000
     55 C          63.5487   83.9648    9.6994 C.ar    1  UNL1       -0.0003
     56 C          62.8274   85.2085   10.1273 C.ar    1  UNL1       -0.0042
@<TRIPOS>BOND
     1    24    25    1
     2    25    26    2
     3    25    27   am
     4    27    23    1
     5    23    22    1
     6     6    22    1
     7     6     7    1
     8     7     8   am
     9     8     9    2
    10     8    10   am
    11    10    11    1
    12    10    13    1
    13    13    14    1
    14    14    15   ar
    15    15    16   ar
    16    16    17   ar
    17    17    19    1
    18    19    20    1
    19    19    21    1
    20    17    18   ar
    21     6     2    1
    22     2     3    2
    23     2     4   am
    24     4     1    1
    25     1    29    1
    26    29    30    1
    27    31    30    1
    28    31    43    1
    29    43    44    1
    30    44    45   ar
    31    45    46   ar
    32    46    47   ar
    33    47    48   ar
    34    48    49   ar
    35    31    32    1
    36    32    33   am
    37    33    34    2
    38    33    36    1
    39    36    37    1
    40    37    38    1
    41    38    39   ar
    42    39    40   ar
    43    40    41   ar
    44    41    42   ar
    45     1    50    1
    46    50    51    1
    47    51    52   ar
    48    52    53   ar
    49    53    54   ar
    50    54    55   ar
    51    55    56   ar
    52    18    14   ar
    53    49    44   ar
    54    42    38   ar
    55    56    51   ar
    56    27    28    1
    57     7    12    1
    58     4     5    1
    59    32    35    1
@<TRIPOS>MOLECULE
*****
 56 59 0 0 0
SMALL
GASTEIGER

@<TRIPOS>ATOM
      1 C          61.8925   86.6595   10.6724 C.3     1  UNL1        0.0760
      2 C          63.2801   86.3556   12.8478 C.2     1  UNL1        0.2404
      3 O          63.4270   84.8929   12.5498 O.2     1  UNL1       -0.2733
      4 N          62.5128   87.2389   11.9091 N.am    1  UNL1       -0.3043
      5 H          62.4164   88.1990   12.1047 H       1  UNL1        0.1494
      6 C          63.9004   86.9350   14.0845 C.3     1  UNL1        0.1514
      7 N          64.0929   88.4180   14.2028 N.am    1  UNL1       -0.2824
      8 C          63.6864   89.1291   15.4595 C.2     1  UNL1        0.3046
      9 O          63.0875   88.3573   16.5978 O.2     1  UNL1       -0.2526
     10 N          63.8789   90.6120   15.5778 N.am    1  UNL1       -0.2567
     11 C          63.4724   91.3231   16.8344 C.3     1  UNL1        0.1168
     12 H          64.4860   88.9245   13.4557 H       1  UNL1        0.1514
     13 C          64.4778   91.3837   14.4395 C.3     1  UNL1        0.1413
     14 C          65.9256   91.7743   14.4777 C.ar    1  UNL1        0.0858
     15 C          66.9105   91.6192   13.3571 C.ar    1  UNL1        0.0530
     16 S          68.2362   92.1376   13.8301 S.2     1  UNL1       -0.0705
     17 C          68.0707   92.6130   15.2431 C.ar    1  UNL1        0.0875
     18 N          66.6426   92.3885   15.6434 N.ar    1  UNL1       -0.2453
     19 C          69.1446   93.2085   16.1046 C.3     1  UNL1        0.0465
     20 C          69.3200   94.6970   16.1629 C.3     1  UNL1        0.0069
     21 C          70.0431   92.3154   16.9077 C.3     1  UNL1        0.0069
     22 C          64.3282   86.0316   15.2029 C.3     1  UNL1        0.0502
     23 C          63.2975   85.3204   16.0286 C.3     1  UNL1        0.0916
     24 C          61.7988   82.0525   14.3481 C.3     1  UNL1        0.0946
     25 C          62.7663   82.9931   15.0033 C.2     1  UNL1        0.2230
     26 O          64.1697   82.5471   15.2884 O.2     1  UNL1       -0.2751
     27 N          62.3302   84.3798   15.3734 N.am    1  UNL1       -0.3043
     28 H          61.4090   84.6725   15.1863 H       1  UNL1        0.1494
     29 C          60.4972   87.0469   10.2811 C.3     1  UNL1        0.0216
     30 C          60.1408   88.4937   10.1097 C.3     1  UNL1        0.0217
     31 C          60.4465   89.1937    8.8187 C.3     1  UNL1        0.0792
     32 N          61.4550   90.3037    8.7879 N.am    1  UNL1       -0.2720
     33 C          62.1419   90.7281   10.0521 C.2     1  UNL1        0.4019
     34 O          61.8203   90.0426   11.3469 O.2     1  UNL1       -0.2264
     35 H          61.6661   90.7536    7.9381 H       1  UNL1        0.1527
     36 O          63.1504   91.8381   10.0214 O.3     1  UNL1       -0.4291
     37 C          64.4511   91.6901   10.7535 C.3     1  UNL1        0.2447
     38 C          65.5453   92.6958   10.5494 C.ar    1  UNL1        0.0714
     39 C          66.9361   92.4007   10.0715 C.ar    1  UNL1        0.1053
     40 N          67.6911   93.6956   10.0142 N.ar    1  UNL1       -0.2350
     41 C          66.7668   94.7910   10.4567 C.ar    1  UNL1        0.1343
     42 S          65.4406   94.1730   10.7875 S.2     1  UNL1       -0.0652
     43 C          59.7439   88.7836    7.5585 C.3     1  UNL1        0.0460
     44 C          59.4163   89.8098    6.5145 C.ar    1  UNL1       -0.0205
     45 C          60.5160   90.4460    5.7172 C.ar    1  UNL1       -0.0042
     46 C          60.1884   91.4721    4.6733 C.ar    1  UNL1       -0.0003
     47 C          58.7611   91.8619    4.4267 C.ar    1  UNL1       -0.0000
     48 C          57.6614   91.2256    5.2240 C.ar    1  UNL1       -0.0003
     49 C          57.9890   90.1996    6.2679 C.ar    1  UNL1       -0.0042
     50 C          62.6675   85.6926    9.8270 C.3     1  UNL1        0.0459
     51 C          62.1703   85.3257    8.4602 C.ar    1  UNL1       -0.0205
     52 C          63.1147   84.7458    7.4493 C.ar    1  UNL1       -0.0042
     53 C          62.6175   84.3789    6.0825 C.ar    1  UNL1       -0.0003
     54 C          61.1760   84.5918    5.7266 C.ar    1  UNL1       -0.0000
     55 C          60.2316   85.1716    6.7375 C.ar    1  UNL1       -0.0003
     56 C          60.7287   85.5386    8.1043 C.ar    1  UNL1       -0.0042
@<TRIPOS>BOND
     1    24    25    1
     2    25    26    2
     3    25    27   am
     4    27    23    1
     5    23    22    1
     6     6    22    1
     7     6     7    1
     8     7     8   am
     9     8     9    2
    10     8    10   am
    11    10    11    1
    12    10    13    1
    13    13    14    1
    14    14    15   ar
    15    15    16   ar
    16    16    17   ar
    17    17    19    1
    18    19    20    1
    19    19    21    1
    20    17    18   ar
    21     6     2    1
    22     2     3    2
    23     2     4   am
    24     4     1    1
    25     1    29    1
    26    29    30    1
    27    31    30    1
    28    31    43    1
    29    43    44    1
    30    44    45   ar
    31    45    46   ar
    32    46    47   ar
    33    47    48   ar
    34    48    49   ar
    35    31    32    1
    36    32    33   am
    37    33    34    2
    38    33    36    1
    39    36    37    1
    40    37    38    1
    41    38    39   ar
    42    39    40   ar
    43    40    41   ar
    44    41    42   ar
    45     1    50    1
    46    50    51    1
    47    51    52   ar
    48    52    53   ar
    49    53    54   ar
    50    54    55   ar
    51    55    56   ar
    52    18    14   ar
    53    49    44   ar
    54    42    38   ar
    55    56    51   ar
    56    27    28    1
    57     7    12    1
    58     4     5    1
    59    32    35    1
