@<TRIPOS>MOLECULE
*****
 21 24 0 0 0
SMALL
GASTEIGER

@<TRIPOS>ATOM
      1 C          62.5267   89.3147   11.0095 C.3     1  UNL1        0.1298
      2 C          62.8560   88.0468   11.7403 C.2     1  UNL1        0.3009
      3 N          63.4776   87.9500   13.1020 N.2     1  UNL1       -0.0406
      4 C          63.6272   86.4965   13.4409 C.2     1  UNL1        0.2636
      5 C          64.1769   85.7992   14.6498 C.2     1  UNL1        0.2821
      6 N          64.1975   84.3004   14.7066 N.2     1  UNL1       -0.0268
      7 C          63.6684   83.4989   13.5544 C.2     1  UNL1        0.3760
      8 N          63.5591   82.0204   13.3265 N.2     1  UNL1       -0.0306
      9 C          62.9418   81.8039   11.9767 C.2     1  UNL1        0.2361
     10 C          62.6696   83.1486   11.3703 C.2     1  UNL1        0.0583
     11 C          63.1187   84.1962   12.3454 C.2     1  UNL1        0.1203
     12 C          63.0981   85.6950   12.2887 C.3     1  UNL1        0.2596
     13 N          62.6214   86.6532   11.2376 N.pl3   1  UNL1       -0.1906
     14 C          62.0165   86.2827    9.9160 C.3     1  UNL1        0.1628
     15 C          62.8440   85.5750    8.8843 C.3     1  UNL1        0.0468
     16 C          62.2390   85.2046    7.5626 C.3     1  UNL1        0.0066
     17 C          60.8065   85.5418    7.2727 C.3     1  UNL1        0.0295
     18 C          59.9789   86.2495    8.3044 C.3     1  UNL1        0.1145
     19 O          58.5464   86.5867    8.0144 O.3     1  UNL1       -0.3843
     20 C          60.5839   86.6200    9.6260 C.3     1  UNL1        0.0758
     21 H          58.1593   87.0389    8.7803 H       1  UNL1        0.2103
@<TRIPOS>BOND
     1     1     2    1
     2     2     3    2
     3     3     4    1
     4     4     5    2
     5     5     6    1
     6     6     7    2
     7     7     8    1
     8     8     9    2
     9     9    10    1
    10    10    11    2
    11    11    12    1
    12    12    13    1
    13    14    13    1
    14    14    15    1
    15    15    16    1
    16    16    17    1
    17    17    18    1
    18    18    19    1
    19    18    20    1
    20    13     2    1
    21    20    14    1
    22    12     4    1
    23    11     7    1
    24    19    21    1
@<TRIPOS>MOLECULE
*****
 21 24 0 0 0
SMALL
GASTEIGER

@<TRIPOS>ATOM
      1 C          63.3477   91.2571    9.7690 C.3     1  UNL1        0.1298
      2 C          63.7842   91.3602   11.2003 C.2     1  UNL1        0.3009
      3 N          63.1127   90.7137   12.3756 N.2     1  UNL1       -0.0406
      4 C          63.8824   91.0817   13.6094 C.2     1  UNL1        0.2636
      5 C          63.6869   90.7340   15.0553 C.2     1  UNL1        0.2821
      6 N          64.6385   91.2602   16.0886 N.2     1  UNL1       -0.0268
      7 C          65.7856   92.1341   15.6758 C.2     1  UNL1        0.3760
      8 N          66.8776   92.7954   16.4634 N.2     1  UNL1       -0.0306
      9 C          67.7480   93.5519   15.5041 C.2     1  UNL1        0.2361
     10 C          67.1940   93.3581   14.1237 C.2     1  UNL1        0.0583
     11 C          65.9811   92.4818   14.2298 C.2     1  UNL1        0.1203
     12 C          65.0295   91.9556   13.1966 C.3     1  UNL1        0.2596
     13 N          64.9688   92.1277   11.7078 N.pl3   1  UNL1       -0.1906
     14 C          65.9249   92.9270   10.8729 C.3     1  UNL1        0.1628
     15 C          67.1304   92.2660   10.2730 C.3     1  UNL1        0.0468
     16 C          68.0865   93.0653    9.4381 C.3     1  UNL1        0.0066
     17 C          67.8371   94.5256    9.2031 C.3     1  UNL1        0.0295
     18 C          66.6316   95.1867    9.8031 C.3     1  UNL1        0.1145
     19 O          66.3823   96.6470    9.5682 O.3     1  UNL1       -0.3843
     20 C          65.6756   94.3874   10.6379 C.3     1  UNL1        0.0758
     21 H          65.5677   96.9131   10.0226 H       1  UNL1        0.2103
@<TRIPOS>BOND
     1     1     2    1
     2     2     3    2
     3     3     4    1
     4     4     5    2
     5     5     6    1
     6     6     7    2
     7     7     8    1
     8     8     9    2
     9     9    10    1
    10    10    11    2
    11    11    12    1
    12    12    13    1
    13    14    13    1
    14    14    15    1
    15    15    16    1
    16    16    17    1
    17    17    18    1
    18    18    19    1
    19    18    20    1
    20    13     2    1
    21    20    14    1
    22    12     4    1
    23    11     7    1
    24    19    21    1
@<TRIPOS>MOLECULE
*****
 21 24 0 0 0
SMALL
GASTEIGER

@<TRIPOS>ATOM
      1 C          62.7501   83.4651   12.1705 C.3     1  UNL1        0.1298
      2 C          62.9849   84.9229   12.4341 C.2     1  UNL1        0.3009
      3 N          63.5579   85.5108   13.6895 N.2     1  UNL1       -0.0406
      4 C          63.6151   87.0001   13.5199 C.2     1  UNL1        0.2636
      5 C          64.0873   88.0963   14.4283 C.2     1  UNL1        0.2821
      6 N          64.0218   89.5252   13.9765 N.2     1  UNL1       -0.0268
      7 C          63.4840   89.8578   12.6163 C.2     1  UNL1        0.3760
      8 N          63.2987   91.1637   11.9020 N.2     1  UNL1       -0.0306
      9 C          62.7120   90.8745   10.5522 C.2     1  UNL1        0.2361
     10 C          62.5347   89.3899   10.4321 C.2     1  UNL1        0.0583
     11 C          63.0118   88.7615   11.7078 C.2     1  UNL1        0.1203
     12 C          63.0774   87.3327   12.1597 C.3     1  UNL1        0.2596
     13 N          62.6879   86.0489   11.4886 N.pl3   1  UNL1       -0.1906
     14 C          62.1039   85.9147   10.1135 C.3     1  UNL1        0.1628
     15 C          62.9281   85.3358    9.0019 C.3     1  UNL1        0.0468
     16 C          62.3441   85.2016    7.6267 C.3     1  UNL1        0.0066
     17 C          60.9360   85.6463    7.3632 C.3     1  UNL1        0.0295
     18 C          60.1118   86.2251    8.4748 C.3     1  UNL1        0.1145
     19 O          58.7037   86.6698    8.2113 O.3     1  UNL1       -0.3843
     20 C          60.6958   86.3594    9.8499 C.3     1  UNL1        0.0758
     21 H          58.3157   87.0167    9.0299 H       1  UNL1        0.2103
@<TRIPOS>BOND
     1     1     2    1
     2     2     3    2
     3     3     4    1
     4     4     5    2
     5     5     6    1
     6     6     7    2
     7     7     8    1
     8     8     9    2
     9     9    10    1
    10    10    11    2
    11    11    12    1
    12    12    13    1
    13    14    13    1
    14    14    15    1
    15    15    16    1
    16    16    17    1
    17    17    18    1
    18    18    19    1
    19    18    20    1
    20    13     2    1
    21    20    14    1
    22    12     4    1
    23    11     7    1
    24    19    21    1
@<TRIPOS>MOLECULE
*****
 21 24 0 0 0
SMALL
GASTEIGER

@<TRIPOS>ATOM
      1 C          64.8520   85.4530   15.3471 C.3     1  UNL1        0.1298
      2 C          64.1899   86.2237   14.2437 C.2     1  UNL1        0.3009
      3 N          64.1657   87.7169   14.1027 N.2     1  UNL1       -0.0406
      4 C          63.3965   88.0527   12.8595 C.2     1  UNL1        0.2636
      5 C          63.0487   89.3630   12.2176 C.2     1  UNL1        0.2821
      6 N          62.2496   89.3877   10.9483 N.2     1  UNL1       -0.0268
      7 C          61.7985   88.1021   10.3210 C.2     1  UNL1        0.3760
      8 N          61.0045   87.8147    9.0812 N.2     1  UNL1       -0.0306
      9 C          60.8617   86.3267    8.9569 C.2     1  UNL1        0.2361
     10 C          61.5674   85.6945   10.1198 C.2     1  UNL1        0.0583
     11 C          62.1463   86.7917   10.9629 C.2     1  UNL1        0.1203
     12 C          62.9453   86.7671   12.2321 C.3     1  UNL1        0.2596
     13 N          63.4357   85.6367   13.0876 N.pl3   1  UNL1       -0.1906
     14 C          63.2112   84.1758   12.8320 C.3     1  UNL1        0.1628
     15 C          63.8279   83.5211   11.6315 C.3     1  UNL1        0.0468
     16 C          63.6034   82.0601   11.3759 C.3     1  UNL1        0.0066
     17 C          62.7623   81.2540   12.3206 C.3     1  UNL1        0.0295
     18 C          62.1456   81.9087   13.5211 C.3     1  UNL1        0.1145
     19 O          61.3045   81.1026   14.4658 O.3     1  UNL1       -0.3843
     20 C          62.3700   83.3696   13.7768 C.3     1  UNL1        0.0758
     21 H          60.9851   81.6735   15.1820 H       1  UNL1        0.2103
@<TRIPOS>BOND
     1     1     2    1
     2     2     3    2
     3     3     4    1
     4     4     5    2
     5     5     6    1
     6     6     7    2
     7     7     8    1
     8     8     9    2
     9     9    10    1
    10    10    11    2
    11    11    12    1
    12    12    13    1
    13    14    13    1
    14    14    15    1
    15    15    16    1
    16    16    17    1
    17    17    18    1
    18    18    19    1
    19    18    20    1
    20    13     2    1
    21    20    14    1
    22    12     4    1
    23    11     7    1
    24    19    21    1
@<TRIPOS>MOLECULE
*****
 21 24 0 0 0
SMALL
GASTEIGER

@<TRIPOS>ATOM
      1 C          62.1313   90.4363   10.3901 C.3     1  UNL1        0.1298
      2 C          62.5915   89.3363   11.3002 C.2     1  UNL1        0.3009
      3 N          63.3630   89.5113   12.5746 N.2     1  UNL1       -0.0406
      4 C          63.6094   88.1513   13.1577 C.2     1  UNL1        0.2636
      5 C          64.3176   87.7065   14.4029 C.2     1  UNL1        0.2821
      6 N          64.4066   86.2461   14.7340 N.2     1  UNL1       -0.0268
      7 C          63.7875   85.2308   13.8199 C.2     1  UNL1        0.3760
      8 N          63.7152   83.7339   13.8846 N.2     1  UNL1       -0.0306
      9 C          62.9624   83.2537   12.6793 C.2     1  UNL1        0.2361
     10 C          62.5693   84.4538   11.8698 C.2     1  UNL1        0.0583
     11 C          63.0793   85.6757   12.5747 C.2     1  UNL1        0.1203
     12 C          62.9902   87.1360   12.2436 C.3     1  UNL1        0.2596
     13 N          62.3612   87.8683   11.0956 N.pl3   1  UNL1       -0.1906
     14 C          61.6301   87.2426    9.9450 C.3     1  UNL1        0.1628
     15 C          60.1743   87.5355    9.7329 C.3     1  UNL1        0.0468
     16 C          59.4433   86.9097    8.5822 C.3     1  UNL1        0.0066
     17 C          60.1679   85.9910    7.6437 C.3     1  UNL1        0.0295
     18 C          61.6237   85.6980    7.8559 C.3     1  UNL1        0.1145
     19 O          62.3483   84.7792    6.9174 O.3     1  UNL1       -0.3843
     20 C          62.3547   86.3238    9.0065 C.3     1  UNL1        0.0758
     21 H          63.2743   84.6984    7.1949 H       1  UNL1        0.2103
@<TRIPOS>BOND
     1     1     2    1
     2     2     3    2
     3     3     4    1
     4     4     5    2
     5     5     6    1
     6     6     7    2
     7     7     8    1
     8     8     9    2
     9     9    10    1
    10    10    11    2
    11    11    12    1
    12    12    13    1
    13    14    13    1
    14    14    15    1
    15    15    16    1
    16    16    17    1
    17    17    18    1
    18    18    19    1
    19    18    20    1
    20    13     2    1
    21    20    14    1
    22    12     4    1
    23    11     7    1
    24    19    21    1
@<TRIPOS>MOLECULE
*****
 21 24 0 0 0
SMALL
GASTEIGER

@<TRIPOS>ATOM
      1 C          62.8718   89.3708   15.9501 C.3     1  UNL1        0.1298
      2 C          63.7797   90.3723   15.2999 C.2     1  UNL1        0.3009
      3 N          64.7344   91.2871   16.0082 N.2     1  UNL1       -0.0406
      4 C          65.4371   92.1150   14.9734 C.2     1  UNL1        0.2636
      5 C          66.4835   93.1839   15.0843 C.2     1  UNL1        0.2821
      6 N          67.0097   93.8497   13.8473 N.2     1  UNL1       -0.0268
      7 C          66.4892   93.4466   12.4995 C.2     1  UNL1        0.3760
      8 N          66.8156   93.9212   11.1146 N.2     1  UNL1       -0.0306
      9 C          65.9709   93.1456   10.1477 C.2     1  UNL1        0.2361
     10 C          65.1223   92.1917   10.9351 C.2     1  UNL1        0.0583
     11 C          65.4426   92.3777   12.3887 C.2     1  UNL1        0.1203
     12 C          64.9166   91.7119   13.6256 C.3     1  UNL1        0.2596
     13 N          63.8923   90.6349   13.8274 N.pl3   1  UNL1       -0.1906
     14 C          63.1167   89.9420   12.7465 C.3     1  UNL1        0.1628
     15 C          63.3726   88.4940   12.4502 C.3     1  UNL1        0.0468
     16 C          62.5970   87.8012   11.3692 C.3     1  UNL1        0.0066
     17 C          61.5655   88.5564   10.5846 C.3     1  UNL1        0.0295
     18 C          61.3097   90.0044   10.8808 C.3     1  UNL1        0.1145
     19 O          60.2782   90.7596   10.0961 O.3     1  UNL1       -0.3843
     20 C          62.0852   90.6972   11.9617 C.3     1  UNL1        0.0758
     21 H          60.2388   91.6759   10.4117 H       1  UNL1        0.2103
@<TRIPOS>BOND
     1     1     2    1
     2     2     3    2
     3     3     4    1
     4     4     5    2
     5     5     6    1
     6     6     7    2
     7     7     8    1
     8     8     9    2
     9     9    10    1
    10    10    11    2
    11    11    12    1
    12    12    13    1
    13    14    13    1
    14    14    15    1
    15    15    16    1
    16    16    17    1
    17    17    18    1
    18    18    19    1
    19    18    20    1
    20    13     2    1
    21    20    14    1
    22    12     4    1
    23    11     7    1
    24    19    21    1
@<TRIPOS>MOLECULE
*****
 21 24 0 0 0
SMALL
GASTEIGER

@<TRIPOS>ATOM
      1 C          60.1817   85.7388    7.6472 C.3     1  UNL1        0.1298
      2 C          60.5566   86.8423    8.5915 C.2     1  UNL1        0.3009
      3 N          60.0303   88.2466    8.5600 N.2     1  UNL1       -0.0406
      4 C          60.6721   89.0075    9.6821 C.2     1  UNL1        0.2636
      5 C          60.5353   90.4301   10.1373 C.2     1  UNL1        0.2821
      6 N          61.3215   90.9189   11.3177 N.2     1  UNL1       -0.0268
      7 C          62.2445   89.9848   12.0427 C.2     1  UNL1        0.3760
      8 N          63.1407   90.1799   13.2296 N.2     1  UNL1       -0.0306
      9 C          63.8313   88.8778   13.5079 C.2     1  UNL1        0.2361
     10 C          63.3620   87.8779   12.4930 C.2     1  UNL1        0.0583
     11 C          62.3812   88.5621   11.5875 C.2     1  UNL1        0.1203
     12 C          61.5950   88.0735   10.4072 C.3     1  UNL1        0.2596
     13 N          61.5237   86.7353    9.7331 N.pl3   1  UNL1       -0.1906
     14 C          62.2856   85.5060   10.1309 C.3     1  UNL1        0.1628
     15 C          63.2354   84.8661    9.1622 C.3     1  UNL1        0.0468
     16 C          63.9974   83.6368    9.5600 C.3     1  UNL1        0.0066
     17 C          63.8094   83.0473   10.9265 C.3     1  UNL1        0.0295
     18 C          62.8596   83.6872   11.8952 C.3     1  UNL1        0.1145
     19 O          62.6717   83.0978   13.2616 O.3     1  UNL1       -0.3843
     20 C          62.0977   84.9165   11.4974 C.3     1  UNL1        0.0758
     21 H          62.0286   83.6287   13.7571 H       1  UNL1        0.2103
@<TRIPOS>BOND
     1     1     2    1
     2     2     3    2
     3     3     4    1
     4     4     5    2
     5     5     6    1
     6     6     7    2
     7     7     8    1
     8     8     9    2
     9     9    10    1
    10    10    11    2
    11    11    12    1
    12    12    13    1
    13    14    13    1
    14    14    15    1
    15    15    16    1
    16    16    17    1
    17    17    18    1
    18    18    19    1
    19    18    20    1
    20    13     2    1
    21    20    14    1
    22    12     4    1
    23    11     7    1
    24    19    21    1
@<TRIPOS>MOLECULE
*****
 21 24 0 0 0
SMALL
GASTEIGER

@<TRIPOS>ATOM
      1 C          65.4294   91.6177   15.5518 C.3     1  UNL1        0.1298
      2 C          64.7822   91.2462   14.2506 C.2     1  UNL1        0.3009
      3 N          64.7363   92.0950   13.0148 N.2     1  UNL1       -0.0406
      4 C          63.9931   91.3340   11.9571 C.2     1  UNL1        0.2636
      5 C          63.6394   91.6718   10.5392 C.2     1  UNL1        0.2821
      6 N          62.8722   90.6905    9.7033 N.2     1  UNL1       -0.0268
      7 C          62.4587   89.3714   10.2856 C.2     1  UNL1        0.3760
      8 N          61.7012   88.2127    9.7082 N.2     1  UNL1       -0.0306
      9 C          61.5867   87.1588   10.7694 C.2     1  UNL1        0.2361
     10 C          62.2735   87.6661   12.0026 C.2     1  UNL1        0.0583
     11 C          62.8125   89.0337   11.7036 C.2     1  UNL1        0.1203
     12 C          63.5796   90.0150   12.5394 C.3     1  UNL1        0.2596
     13 N          64.0674   89.9607   13.9569 N.pl3   1  UNL1       -0.1906
     14 C          63.8741   88.8209   14.9127 C.3     1  UNL1        0.1628
     15 C          63.1449   89.0412   16.2049 C.3     1  UNL1        0.0468
     16 C          62.9517   87.9014   17.1607 C.3     1  UNL1        0.0066
     17 C          63.4877   86.5414   16.8244 C.3     1  UNL1        0.0295
     18 C          64.2170   86.3212   15.5323 C.3     1  UNL1        0.1145
     19 O          64.7530   84.9613   15.1959 O.3     1  UNL1       -0.3843
     20 C          64.4102   87.4609   14.5764 C.3     1  UNL1        0.0758
     21 H          65.1933   84.9918   14.3321 H       1  UNL1        0.2103
@<TRIPOS>BOND
     1     1     2    1
     2     2     3    2
     3     3     4    1
     4     4     5    2
     5     5     6    1
     6     6     7    2
     7     7     8    1
     8     8     9    2
     9     9    10    1
    10    10    11    2
    11    11    12    1
    12    12    13    1
    13    14    13    1
    14    14    15    1
    15    15    16    1
    16    16    17    1
    17    17    18    1
    18    18    19    1
    19    18    20    1
    20    13     2    1
    21    20    14    1
    22    12     4    1
    23    11     7    1
    24    19    21    1
@<TRIPOS>MOLECULE
*****
 21 24 0 0 0
SMALL
GASTEIGER

@<TRIPOS>ATOM
      1 C          66.4740   93.3124   10.2303 C.3     1  UNL1        0.1298
      2 C          65.4444   92.5005   10.9588 C.2     1  UNL1        0.3009
      3 N          64.1757   91.9552   10.3732 N.2     1  UNL1       -0.0406
      4 C          63.4498   91.2090   11.4532 C.2     1  UNL1        0.2636
      5 C          62.1482   90.4638   11.4575 C.2     1  UNL1        0.2821
      6 N          61.6665   89.8027   12.7150 N.2     1  UNL1       -0.0268
      7 C          62.4867   89.8868   13.9680 C.2     1  UNL1        0.3760
      8 N          62.2703   89.3398   15.3478 N.2     1  UNL1       -0.0306
      9 C          63.4384   89.7469   16.1963 C.2     1  UNL1        0.2361
     10 C          64.3767   90.5456   15.3408 C.2     1  UNL1        0.0583
     11 C          63.7885   90.6321   13.9637 C.2     1  UNL1        0.1203
     12 C          64.2700   91.2932   12.7063 C.3     1  UNL1        0.2596
     13 N          65.5027   92.0914   12.4007 N.pl3   1  UNL1       -0.1906
     14 C          66.6009   92.4223   13.3673 C.3     1  UNL1        0.1628
     15 C          66.2891   93.1712   14.6290 C.3     1  UNL1        0.0468
     16 C          67.3874   93.5022   15.5957 C.3     1  UNL1        0.0066
     17 C          68.7974   93.0842   15.3006 C.3     1  UNL1        0.0295
     18 C          69.1092   92.3354   14.0388 C.3     1  UNL1        0.1145
     19 O          70.5193   91.9174   13.7437 O.3     1  UNL1       -0.3843
     20 C          68.0110   92.0044   13.0722 C.3     1  UNL1        0.0758
     21 H          70.5464   91.4472   12.8957 H       1  UNL1        0.2103
@<TRIPOS>BOND
     1     1     2    1
     2     2     3    2
     3     3     4    1
     4     4     5    2
     5     5     6    1
     6     6     7    2
     7     7     8    1
     8     8     9    2
     9     9    10    1
    10    10    11    2
    11    11    12    1
    12    12    13    1
    13    14    13    1
    14    14    15    1
    15    15    16    1
    16    16    17    1
    17    17    18    1
    18    18    19    1
    19    18    20    1
    20    13     2    1
    21    20    14    1
    22    12     4    1
    23    11     7    1
    24    19    21    1
