@<TRIPOS>MOLECULE
*****
 44 47 0 0 0
SMALL
GASTEIGER

@<TRIPOS>ATOM
      1 N          64.6355   91.2738   12.8353 N.ar    1  UNL1       -0.2470
      2 C          63.6549   90.8682   11.7752 C.ar    1  UNL1        0.2657
      3 O          63.2363   91.8532   10.7242 O.2     1  UNL1       -0.2668
      4 C          63.0928   89.4775   11.7662 C.ar    1  UNL1        0.0736
      5 C          63.5114   88.4925   12.8172 C.ar    1  UNL1        0.0847
      6 N          64.4920   88.8982   13.8772 N.ar    1  UNL1       -0.2755
      7 C          65.0541   90.2888   13.8863 C.ar    1  UNL1        0.3341
      8 O          66.0348   90.6945   14.9463 O.2     1  UNL1       -0.2462
      9 C          62.1121   89.0718   10.7061 C.ar    1  UNL1        0.0060
     10 C          62.2807   87.7651    9.9890 C.ar    1  UNL1       -0.0001
     11 C          61.3001   87.3594    8.9289 C.ar    1  UNL1       -0.0029
     12 C          60.1508   88.2604    8.5860 C.ar    1  UNL1       -0.0064
     13 C          59.9822   89.5670    9.3031 C.ar    1  UNL1       -0.0029
     14 C          60.9629   89.9727   10.3631 C.ar    1  UNL1       -0.0001
     15 C          59.1702   87.8546    7.5259 C.3     1  UNL1        0.0959
     16 N          58.4585   88.9021    6.7220 N.3     1  UNL1       -0.2891
     17 H          57.8359   89.3931    7.3636 H       1  UNL1        0.1239
     18 C          59.2449   89.9515    5.9938 C.3     1  UNL1        0.1112
     19 C          58.5351   91.0898    5.3226 C.2     1  UNL1        0.0663
     20 O          59.3245   92.1841    4.6676 O.co2   1  UNL1       -0.5477
     21 O          57.0357   91.1336    5.3066 O.co2   1  UNL1       -0.5477
     22 C          65.1977   92.6645   12.8444 C.3     1  UNL1        0.1334
     23 N          67.6738   92.7694   13.6239 N.3     1  UNL1       -0.3172
     24 C          66.6483   92.8892   12.5358 C.3     1  UNL1        0.0968
     25 H          67.2120   92.5316   14.5017 H       1  UNL1        0.1192
     26 H          68.1647   93.6574   13.7276 H       1  UNL1        0.1192
     27 C          67.0734   93.2336   11.1391 C.ar    1  UNL1       -0.0063
     28 C          67.9235   92.2772   10.3565 C.ar    1  UNL1       -0.0029
     29 C          68.3485   92.6217    8.9598 C.ar    1  UNL1       -0.0003
     30 C          67.9235   93.9226    8.3459 C.ar    1  UNL1       -0.0000
     31 C          67.0734   94.8790    9.1285 C.ar    1  UNL1       -0.0003
     32 C          66.6483   94.5345   10.5251 C.ar    1  UNL1       -0.0029
     33 C          64.9106   87.9132   14.9282 C.3     1  UNL1        0.1394
     34 C          63.8728   87.1533   15.6998 C.ar    1  UNL1        0.0319
     35 C          63.1490   87.8144   16.8353 C.ar    1  UNL1        0.1379
     36 F          63.4632   89.2353   17.1991 F       1  UNL1       -0.2044
     37 C          62.1112   87.0546   17.6070 C.ar    1  UNL1        0.0294
     38 C          61.7970   85.6337   17.2432 C.ar    1  UNL1        0.0022
     39 C          62.5207   84.9726   16.1078 C.ar    1  UNL1        0.0037
     40 C          63.5586   85.7324   15.3361 C.ar    1  UNL1        0.0714
     41 C          64.2823   85.0713   14.2007 C.3     1  UNL1        0.4184
     42 F          65.0059   84.4103   13.0653 F       1  UNL1       -0.1659
     43 F          63.0844   85.2718   13.3205 F       1  UNL1       -0.1659
     44 F          65.4802   84.8709   15.0809 F       1  UNL1       -0.1659
@<TRIPOS>UNITY_ATOM_ATTR
20 1
charge -1
@<TRIPOS>BOND
     1    24    23    1
     2    24    22    1
     3    22     1    1
     4     1     2   ar
     5     2     3    2
     6     2     4   ar
     7     4     9    1
     8     9    10   ar
     9    10    11   ar
    10    11    12   ar
    11    12    15    1
    12    15    16    1
    13    16    18    1
    14    18    19    1
    15    19    20   ar
    16    19    21   ar
    17    12    13   ar
    18    13    14   ar
    19     4     5   ar
    20     5     6   ar
    21     6    33    1
    22    33    34    1
    23    34    35   ar
    24    35    36    1
    25    35    37   ar
    26    37    38   ar
    27    38    39   ar
    28    39    40   ar
    29    40    41    1
    30    41    42    1
    31    41    43    1
    32    41    44    1
    33     6     7   ar
    34     7     8    2
    35    24    27    1
    36    27    28   ar
    37    28    29   ar
    38    29    30   ar
    39    30    31   ar
    40    31    32   ar
    41     7     1   ar
    42    32    27   ar
    43    14     9   ar
    44    40    34   ar
    45    23    25    1
    46    23    26    1
    47    16    17    1
@<TRIPOS>MOLECULE
*****
 44 47 0 0 0
SMALL
GASTEIGER

@<TRIPOS>ATOM
      1 N          63.7078   88.7457   13.5366 N.ar    1  UNL1       -0.2470
      2 C          62.8117   88.8915   12.3425 C.ar    1  UNL1        0.2657
      3 O          62.3179   90.2484   11.9365 O.2     1  UNL1       -0.2668
      4 C          62.4093   87.6802   11.5546 C.ar    1  UNL1        0.0736
      5 C          62.9031   86.3233   11.9606 C.ar    1  UNL1        0.0847
      6 N          63.7992   86.1775   13.1546 N.ar    1  UNL1       -0.2755
      7 C          64.2015   87.3888   13.9426 C.ar    1  UNL1        0.3341
      8 O          65.0977   87.2431   15.1367 O.2     1  UNL1       -0.2462
      9 C          61.5132   87.8259   10.3605 C.ar    1  UNL1        0.0060
     10 C          61.0012   89.1800    9.9678 C.ar    1  UNL1       -0.0001
     11 C          60.1051   89.3258    8.7738 C.ar    1  UNL1       -0.0029
     12 C          59.7209   88.1173    7.9724 C.ar    1  UNL1       -0.0064
     13 C          60.2329   86.7632    8.3651 C.ar    1  UNL1       -0.0029
     14 C          61.1291   86.6175    9.5592 C.ar    1  UNL1       -0.0001
     15 C          58.8248   88.2630    6.7784 C.3     1  UNL1        0.0959
     16 N          58.2473   89.6037    6.4332 N.3     1  UNL1       -0.2891
     17 H          58.1137   90.1021    7.3131 H       1  UNL1        0.1239
     18 C          58.9947   90.5297    5.5201 C.3     1  UNL1        0.1112
     19 C          58.2757   91.6611    4.8470 C.2     1  UNL1        0.0663
     20 O          59.0349   92.6240    3.9831 O.co2   1  UNL1       -0.5477
     21 O          56.7974   91.8296    5.0378 O.co2   1  UNL1       -0.5477
     22 C          64.1102   89.9570   14.3246 C.3     1  UNL1        0.1334
     23 N          64.5638   91.5289   12.3064 N.3     1  UNL1       -0.3172
     24 C          64.9251   91.0367   13.6765 C.3     1  UNL1        0.0968
     25 H          63.7449   91.0234   11.9685 H       1  UNL1        0.1192
     26 H          65.3464   91.3718   11.6714 H       1  UNL1        0.1192
     27 C          66.1014   91.6243   14.3986 C.ar    1  UNL1       -0.0063
     28 C          65.9175   92.2437   15.7523 C.ar    1  UNL1       -0.0029
     29 C          67.0937   92.8312   16.4742 C.ar    1  UNL1       -0.0003
     30 C          68.4538   92.7993   15.8425 C.ar    1  UNL1       -0.0000
     31 C          68.6377   92.1800   14.4888 C.ar    1  UNL1       -0.0003
     32 C          67.4615   91.5924   13.7669 C.ar    1  UNL1       -0.0029
     33 C          64.2930   84.8206   13.5606 C.3     1  UNL1        0.1394
     34 C          63.3562   83.6491   13.5556 C.ar    1  UNL1        0.0319
     35 C          62.5174   83.3543   14.7637 C.ar    1  UNL1        0.1379
     36 F          62.6155   84.2310   15.9769 F       1  UNL1       -0.2044
     37 C          61.5806   82.1828   14.7587 C.ar    1  UNL1        0.0294
     38 C          61.4825   81.3062   13.5455 C.ar    1  UNL1        0.0022
     39 C          62.3212   81.6010   12.3373 C.ar    1  UNL1        0.0037
     40 C          63.2581   82.7725   12.3424 C.ar    1  UNL1        0.0714
     41 C          64.0968   83.0672   11.1342 C.3     1  UNL1        0.4184
     42 F          64.9355   83.3620    9.9261 F       1  UNL1       -0.1659
     43 F          62.9590   83.8373   10.5323 F       1  UNL1       -0.1659
     44 F          65.2346   82.2972   11.7362 F       1  UNL1       -0.1659
@<TRIPOS>UNITY_ATOM_ATTR
20 1
charge -1
@<TRIPOS>BOND
     1    24    23    1
     2    24    22    1
     3    22     1    1
     4     1     2   ar
     5     2     3    2
     6     2     4   ar
     7     4     9    1
     8     9    10   ar
     9    10    11   ar
    10    11    12   ar
    11    12    15    1
    12    15    16    1
    13    16    18    1
    14    18    19    1
    15    19    20   ar
    16    19    21   ar
    17    12    13   ar
    18    13    14   ar
    19     4     5   ar
    20     5     6   ar
    21     6    33    1
    22    33    34    1
    23    34    35   ar
    24    35    36    1
    25    35    37   ar
    26    37    38   ar
    27    38    39   ar
    28    39    40   ar
    29    40    41    1
    30    41    42    1
    31    41    43    1
    32    41    44    1
    33     6     7   ar
    34     7     8    2
    35    24    27    1
    36    27    28   ar
    37    28    29   ar
    38    29    30   ar
    39    30    31   ar
    40    31    32   ar
    41     7     1   ar
    42    32    27   ar
    43    14     9   ar
    44    40    34   ar
    45    23    25    1
    46    23    26    1
    47    16    17    1
@<TRIPOS>MOLECULE
*****
 44 47 0 0 0
SMALL
GASTEIGER

@<TRIPOS>ATOM
      1 N          63.9471   87.8943   13.9729 N.ar    1  UNL1       -0.2470
      2 C          63.0454   88.2474   12.8275 C.ar    1  UNL1        0.2657
      3 O          62.5367   89.6507   12.6784 O.2     1  UNL1       -0.2668
      4 C          62.6524   87.1974   11.8311 C.ar    1  UNL1        0.0736
      5 C          63.1611   85.7942   11.9802 C.ar    1  UNL1        0.0847
      6 N          64.0628   85.4410   13.1256 N.ar    1  UNL1       -0.2755
      7 C          64.4558   86.4911   14.1220 C.ar    1  UNL1        0.3341
      8 O          65.3576   86.1380   15.2676 O.2     1  UNL1       -0.2462
      9 C          61.7506   87.5505   10.6856 C.ar    1  UNL1        0.0060
     10 C          61.5810   88.9843   10.2790 C.ar    1  UNL1       -0.0001
     11 C          60.6793   89.3375    9.1335 C.ar    1  UNL1       -0.0029
     12 C          59.9471   88.2567    8.3946 C.ar    1  UNL1       -0.0064
     13 C          60.1166   86.8229    8.8012 C.ar    1  UNL1       -0.0029
     14 C          61.0184   86.4698    9.9467 C.ar    1  UNL1       -0.0001
     15 C          59.0453   88.6098    7.2491 C.3     1  UNL1        0.0959
     16 N          58.8682   90.0445    6.8487 N.3     1  UNL1       -0.2891
     17 H          59.5015   90.5930    7.4305 H       1  UNL1        0.1239
     18 C          59.1128   90.4627    5.4291 C.3     1  UNL1        0.1112
     19 C          58.3494   91.6138    4.8441 C.2     1  UNL1        0.0663
     20 O          59.0591   92.6365    4.0073 O.co2   1  UNL1       -0.5477
     21 O          56.8762   91.7421    5.0961 O.co2   1  UNL1       -0.5477
     22 C          64.3402   88.9444   14.9694 C.3     1  UNL1        0.1334
     23 N          62.9820   91.1576   15.0533 N.3     1  UNL1       -0.3172
     24 C          64.2010   90.3971   14.6225 C.3     1  UNL1        0.0968
     25 H          62.3575   90.5361   15.5673 H       1  UNL1        0.1192
     26 H          62.4995   91.5206   14.2312 H       1  UNL1        0.1192
     27 C          65.2809   91.0892   13.8447 C.ar    1  UNL1       -0.0063
     28 C          64.9632   91.7269   12.5247 C.ar    1  UNL1       -0.0029
     29 C          66.0430   92.4190   11.7470 C.ar    1  UNL1       -0.0003
     30 C          67.4405   92.4735   12.2893 C.ar    1  UNL1       -0.0000
     31 C          67.7582   91.8359   13.6093 C.ar    1  UNL1       -0.0003
     32 C          66.6783   91.1437   14.3870 C.ar    1  UNL1       -0.0029
     33 C          64.5715   84.0378   13.2747 C.3     1  UNL1        0.1394
     34 C          63.6073   82.8891   13.2990 C.ar    1  UNL1        0.0319
     35 C          63.6325   81.8654   12.2028 C.ar    1  UNL1        0.1379
     36 F          64.6221   81.9905   11.0825 F       1  UNL1       -0.2044
     37 C          62.6683   80.7167   12.2271 C.ar    1  UNL1        0.0294
     38 C          61.6788   80.5916   13.3474 C.ar    1  UNL1        0.0022
     39 C          61.6535   81.6152   14.4435 C.ar    1  UNL1        0.0037
     40 C          62.6177   82.7640   14.4193 C.ar    1  UNL1        0.0714
     41 C          62.5924   83.7876   15.5154 C.3     1  UNL1        0.4184
     42 F          62.5671   84.8113   16.6115 F       1  UNL1       -0.1659
     43 F          63.8731   83.2318   16.0640 F       1  UNL1       -0.1659
     44 F          61.3118   84.3434   14.9668 F       1  UNL1       -0.1659
@<TRIPOS>UNITY_ATOM_ATTR
20 1
charge -1
@<TRIPOS>BOND
     1    24    23    1
     2    24    22    1
     3    22     1    1
     4     1     2   ar
     5     2     3    2
     6     2     4   ar
     7     4     9    1
     8     9    10   ar
     9    10    11   ar
    10    11    12   ar
    11    12    15    1
    12    15    16    1
    13    16    18    1
    14    18    19    1
    15    19    20   ar
    16    19    21   ar
    17    12    13   ar
    18    13    14   ar
    19     4     5   ar
    20     5     6   ar
    21     6    33    1
    22    33    34    1
    23    34    35   ar
    24    35    36    1
    25    35    37   ar
    26    37    38   ar
    27    38    39   ar
    28    39    40   ar
    29    40    41    1
    30    41    42    1
    31    41    43    1
    32    41    44    1
    33     6     7   ar
    34     7     8    2
    35    24    27    1
    36    27    28   ar
    37    28    29   ar
    38    29    30   ar
    39    30    31   ar
    40    31    32   ar
    41     7     1   ar
    42    32    27   ar
    43    14     9   ar
    44    40    34   ar
    45    23    25    1
    46    23    26    1
    47    16    17    1
@<TRIPOS>MOLECULE
*****
 44 47 0 0 0
SMALL
GASTEIGER

@<TRIPOS>ATOM
      1 N          61.7191   86.9683   11.6537 N.ar    1  UNL1       -0.2470
      2 C          62.1877   88.1608   12.4337 C.ar    1  UNL1        0.2657
      3 O          61.4882   89.4789   12.2812 O.2     1  UNL1       -0.2668
      4 C          63.3559   88.0351   13.3661 C.ar    1  UNL1        0.0736
      5 C          64.0555   86.7170   13.5186 C.ar    1  UNL1        0.0847
      6 N          63.5869   85.5246   12.7386 N.ar    1  UNL1       -0.2755
      7 C          62.4187   85.6502   11.8062 C.ar    1  UNL1        0.3341
      8 O          61.9500   84.4577   11.0261 O.2     1  UNL1       -0.2462
      9 C          63.8246   89.2276   14.1461 C.ar    1  UNL1        0.0060
     10 C          63.4559   89.3694   15.5932 C.ar    1  UNL1       -0.0001
     11 C          63.9246   90.5618   16.3732 C.ar    1  UNL1       -0.0029
     12 C          64.7620   91.6125   15.7062 C.ar    1  UNL1       -0.0064
     13 C          65.1307   91.4707   14.2592 C.ar    1  UNL1       -0.0029
     14 C          64.6620   90.2783   13.4791 C.ar    1  UNL1       -0.0001
     15 C          65.2306   92.8049   16.4862 C.3     1  UNL1        0.0959
     16 N          66.6820   93.1836   16.4776 N.3     1  UNL1       -0.2891
     17 H          66.9323   93.4126   17.4395 H       1  UNL1        0.1239
     18 C          67.7087   92.2081   15.9835 C.3     1  UNL1        0.1112
     19 C          68.6424   92.5983   14.8763 C.2     1  UNL1        0.0663
     20 O          69.7533   93.5711   15.1398 O.co2   1  UNL1       -0.5477
     21 O          68.4652   92.0156   13.5055 O.co2   1  UNL1       -0.5477
     22 C          60.5508   87.0939   10.7212 C.3     1  UNL1        0.1334
     23 N          60.5391   88.8505    8.8070 N.3     1  UNL1       -0.3172
     24 C          60.7755   87.4471    9.2808 C.3     1  UNL1        0.0968
     25 H          60.2317   89.4267    9.5906 H       1  UNL1        0.1192
     26 H          59.8200   88.8486    8.0837 H       1  UNL1        0.1192
     27 C          61.2366   86.3968    8.3142 C.ar    1  UNL1       -0.0063
     28 C          62.6641   85.9364    8.3315 C.ar    1  UNL1       -0.0029
     29 C          63.1251   84.8862    7.3648 C.ar    1  UNL1       -0.0003
     30 C          62.1587   84.2964    6.3809 C.ar    1  UNL1       -0.0000
     31 C          60.7312   84.7568    6.3636 C.ar    1  UNL1       -0.0003
     32 C          60.2702   85.8070    7.3302 C.ar    1  UNL1       -0.0029
     33 C          64.2864   84.2065   12.8911 C.3     1  UNL1        0.1394
     34 C          63.4877   82.9505   13.0768 C.ar    1  UNL1        0.0319
     35 C          63.5042   81.8878   12.0183 C.ar    1  UNL1        0.1379
     36 F          64.3196   82.0810   10.7741 F       1  UNL1       -0.2044
     37 C          62.7055   80.6318   12.2040 C.ar    1  UNL1        0.0294
     38 C          61.8902   80.4385   13.4481 C.ar    1  UNL1        0.0022
     39 C          61.8736   81.5012   14.5066 C.ar    1  UNL1        0.0037
     40 C          62.6724   82.7573   14.3209 C.ar    1  UNL1        0.0714
     41 C          62.6558   83.8200   15.3794 C.3     1  UNL1        0.4184
     42 F          62.6392   84.8827   16.4378 F       1  UNL1       -0.1659
     43 F          63.9699   83.3200   15.9019 F       1  UNL1       -0.1659
     44 F          61.3417   84.3199   14.8568 F       1  UNL1       -0.1659
@<TRIPOS>UNITY_ATOM_ATTR
20 1
charge -1
@<TRIPOS>BOND
     1    24    23    1
     2    24    22    1
     3    22     1    1
     4     1     2   ar
     5     2     3    2
     6     2     4   ar
     7     4     9    1
     8     9    10   ar
     9    10    11   ar
    10    11    12   ar
    11    12    15    1
    12    15    16    1
    13    16    18    1
    14    18    19    1
    15    19    20   ar
    16    19    21   ar
    17    12    13   ar
    18    13    14   ar
    19     4     5   ar
    20     5     6   ar
    21     6    33    1
    22    33    34    1
    23    34    35   ar
    24    35    36    1
    25    35    37   ar
    26    37    38   ar
    27    38    39   ar
    28    39    40   ar
    29    40    41    1
    30    41    42    1
    31    41    43    1
    32    41    44    1
    33     6     7   ar
    34     7     8    2
    35    24    27    1
    36    27    28   ar
    37    28    29   ar
    38    29    30   ar
    39    30    31   ar
    40    31    32   ar
    41     7     1   ar
    42    32    27   ar
    43    14     9   ar
    44    40    34   ar
    45    23    25    1
    46    23    26    1
    47    16    17    1
@<TRIPOS>MOLECULE
*****
 44 47 0 0 0
SMALL
GASTEIGER

@<TRIPOS>ATOM
      1 N          64.2180   88.1716   13.8181 N.ar    1  UNL1       -0.2470
      2 C          63.2974   87.9487   12.6550 C.ar    1  UNL1        0.2657
      3 O          62.8488   86.5598   12.3090 O.2     1  UNL1       -0.2668
      4 C          62.8254   89.1147   11.8380 C.ar    1  UNL1        0.0736
      5 C          63.2740   90.5036   12.1840 C.ar    1  UNL1        0.0847
      6 N          64.1946   90.7264   13.3471 N.ar    1  UNL1       -0.2755
      7 C          64.6666   89.5604   14.1641 C.ar    1  UNL1        0.3341
      8 O          65.5873   89.7833   15.3273 O.2     1  UNL1       -0.2462
      9 C          61.9048   88.8918   10.6749 C.ar    1  UNL1        0.0060
     10 C          62.0150   87.6368    9.8608 C.ar    1  UNL1       -0.0001
     11 C          61.0945   87.4139    8.6977 C.ar    1  UNL1       -0.0029
     12 C          60.0635   88.4461    8.3486 C.ar    1  UNL1       -0.0064
     13 C          59.9532   89.7012    9.1627 C.ar    1  UNL1       -0.0029
     14 C          60.8739   89.9240   10.3258 C.ar    1  UNL1       -0.0001
     15 C          59.1429   88.2232    7.1856 C.3     1  UNL1        0.0959
     16 N          58.4016   89.3799    6.5834 N.3     1  UNL1       -0.2891
     17 H          58.0255   89.9247    7.3594 H       1  UNL1        0.1239
     18 C          59.1179   90.3438    5.6848 C.3     1  UNL1        0.1112
     19 C          58.3889   91.5277    5.1216 C.2     1  UNL1        0.0663
     20 O          59.1597   92.6916    4.5729 O.co2   1  UNL1       -0.5477
     21 O          56.8890   91.5475    5.1073 O.co2   1  UNL1       -0.5477
     22 C          64.6900   87.0055   14.6352 C.3     1  UNL1        0.1334
     23 N          62.8745   86.5299   16.4318 N.3     1  UNL1       -0.3172
     24 C          63.6932   86.0750   15.2601 C.3     1  UNL1        0.0968
     25 H          63.1238   87.4902   16.6684 H       1  UNL1        0.1192
     26 H          63.0589   85.9238   17.2312 H       1  UNL1        0.1192
     27 C          63.5150   84.6896   14.7133 C.ar    1  UNL1       -0.0063
     28 C          62.3268   83.8697   15.1203 C.ar    1  UNL1       -0.0029
     29 C          62.1487   82.4843   14.5735 C.ar    1  UNL1       -0.0003
     30 C          63.1588   81.9189   13.6196 C.ar    1  UNL1       -0.0000
     31 C          64.3471   82.7388   13.2125 C.ar    1  UNL1       -0.0003
     32 C          64.5252   84.1242   13.7594 C.ar    1  UNL1       -0.0029
     33 C          64.6433   92.1153   13.6931 C.3     1  UNL1        0.1394
     34 C          65.9826   92.3335   14.3323 C.ar    1  UNL1        0.0319
     35 C          66.0878   92.4818   15.8213 C.ar    1  UNL1        0.1379
     36 F          64.8537   92.4120   16.6710 F       1  UNL1       -0.2044
     37 C          67.4271   92.7000   16.4604 C.ar    1  UNL1        0.0294
     38 C          68.6613   92.7698   15.6107 C.ar    1  UNL1        0.0022
     39 C          68.5561   92.6215   14.1218 C.ar    1  UNL1        0.0037
     40 C          67.2167   92.4033   13.4826 C.ar    1  UNL1        0.0714
     41 C          67.1116   92.2550   11.9936 C.3     1  UNL1        0.4184
     42 F          67.0064   92.1067   10.5047 F       1  UNL1       -0.1659
     43 F          68.2031   91.2265   12.0190 F       1  UNL1       -0.1659
     44 F          66.0200   93.2834   11.9683 F       1  UNL1       -0.1659
@<TRIPOS>UNITY_ATOM_ATTR
20 1
charge -1
@<TRIPOS>BOND
     1    24    23    1
     2    24    22    1
     3    22     1    1
     4     1     2   ar
     5     2     3    2
     6     2     4   ar
     7     4     9    1
     8     9    10   ar
     9    10    11   ar
    10    11    12   ar
    11    12    15    1
    12    15    16    1
    13    16    18    1
    14    18    19    1
    15    19    20   ar
    16    19    21   ar
    17    12    13   ar
    18    13    14   ar
    19     4     5   ar
    20     5     6   ar
    21     6    33    1
    22    33    34    1
    23    34    35   ar
    24    35    36    1
    25    35    37   ar
    26    37    38   ar
    27    38    39   ar
    28    39    40   ar
    29    40    41    1
    30    41    42    1
    31    41    43    1
    32    41    44    1
    33     6     7   ar
    34     7     8    2
    35    24    27    1
    36    27    28   ar
    37    28    29   ar
    38    29    30   ar
    39    30    31   ar
    40    31    32   ar
    41     7     1   ar
    42    32    27   ar
    43    14     9   ar
    44    40    34   ar
    45    23    25    1
    46    23    26    1
    47    16    17    1
@<TRIPOS>MOLECULE
*****
 44 47 0 0 0
SMALL
GASTEIGER

@<TRIPOS>ATOM
      1 N          63.7893   86.7249   13.4941 N.ar    1  UNL1       -0.2470
      2 C          62.9154   86.7545   12.2753 C.ar    1  UNL1        0.2657
      3 O          62.4396   85.4708   11.6623 O.2     1  UNL1       -0.2668
      4 C          62.5173   88.0677   11.6697 C.ar    1  UNL1        0.0736
      5 C          62.9931   89.3514   12.2828 C.ar    1  UNL1        0.0847
      6 N          63.8670   89.3218   13.5015 N.ar    1  UNL1       -0.2755
      7 C          64.2651   88.0085   14.1071 C.ar    1  UNL1        0.3341
      8 O          65.1391   87.9789   15.3259 O.2     1  UNL1       -0.2462
      9 C          61.6433   88.0974   10.4509 C.ar    1  UNL1        0.0060
     10 C          61.0072   89.3841   10.0153 C.ar    1  UNL1       -0.0001
     11 C          60.1333   89.4138    8.7965 C.ar    1  UNL1       -0.0029
     12 C          59.8954   88.1567    8.0134 C.ar    1  UNL1       -0.0064
     13 C          60.5315   86.8700    8.4490 C.ar    1  UNL1       -0.0029
     14 C          61.4054   86.8404    9.6678 C.ar    1  UNL1       -0.0001
     15 C          59.0215   88.1864    6.7947 C.3     1  UNL1        0.0959
     16 N          58.3451   89.4619    6.3877 N.3     1  UNL1       -0.2891
     17 H          58.0606   89.9316    7.2472 H       1  UNL1        0.1239
     18 C          59.0860   90.4746    5.5658 C.3     1  UNL1        0.1112
     19 C          58.3636   91.6699    5.0186 C.2     1  UNL1        0.0663
     20 O          59.1392   92.8067    4.4220 O.co2   1  UNL1       -0.5477
     21 O          56.8655   91.7283    5.0680 O.co2   1  UNL1       -0.5477
     22 C          64.1875   85.4116   14.0998 C.3     1  UNL1        0.1334
     23 N          62.3339   84.9931   15.8715 N.3     1  UNL1       -0.3172
     24 C          63.1453   84.5172   14.7031 C.3     1  UNL1        0.0968
     25 H          62.6211   85.9391   16.1222 H       1  UNL1        0.1192
     26 H          62.4837   84.3706   16.6655 H       1  UNL1        0.1192
     27 C          62.9145   83.1470   14.1380 C.ar    1  UNL1       -0.0063
     28 C          61.7296   82.3421   14.5828 C.ar    1  UNL1       -0.0029
     29 C          61.4989   80.9719   14.0177 C.ar    1  UNL1       -0.0003
     30 C          62.4531   80.4067   13.0078 C.ar    1  UNL1       -0.0000
     31 C          63.6380   81.2116   12.5629 C.ar    1  UNL1       -0.0003
     32 C          63.8688   82.5818   13.1280 C.ar    1  UNL1       -0.0029
     33 C          64.3428   90.6054   14.1146 C.3     1  UNL1        0.1394
     34 C          65.0343   91.6308   13.2659 C.ar    1  UNL1        0.0319
     35 C          64.5408   91.9118   11.8776 C.ar    1  UNL1        0.1379
     36 F          63.3556   91.1674   11.3379 F       1  UNL1       -0.2044
     37 C          65.2323   92.9372   11.0289 C.ar    1  UNL1        0.0294
     38 C          66.4175   93.6817   11.5686 C.ar    1  UNL1        0.0022
     39 C          66.9111   93.4007   12.9568 C.ar    1  UNL1        0.0037
     40 C          66.2195   92.3752   13.8056 C.ar    1  UNL1        0.0714
     41 C          66.7131   92.0943   15.1939 C.3     1  UNL1        0.4184
     42 F          67.2067   91.8133   16.5821 F       1  UNL1       -0.1659
     43 F          65.7700   93.1260   15.7380 F       1  UNL1       -0.1659
     44 F          67.6562   91.0625   14.6497 F       1  UNL1       -0.1659
@<TRIPOS>UNITY_ATOM_ATTR
20 1
charge -1
@<TRIPOS>BOND
     1    24    23    1
     2    24    22    1
     3    22     1    1
     4     1     2   ar
     5     2     3    2
     6     2     4   ar
     7     4     9    1
     8     9    10   ar
     9    10    11   ar
    10    11    12   ar
    11    12    15    1
    12    15    16    1
    13    16    18    1
    14    18    19    1
    15    19    20   ar
    16    19    21   ar
    17    12    13   ar
    18    13    14   ar
    19     4     5   ar
    20     5     6   ar
    21     6    33    1
    22    33    34    1
    23    34    35   ar
    24    35    36    1
    25    35    37   ar
    26    37    38   ar
    27    38    39   ar
    28    39    40   ar
    29    40    41    1
    30    41    42    1
    31    41    43    1
    32    41    44    1
    33     6     7   ar
    34     7     8    2
    35    24    27    1
    36    27    28   ar
    37    28    29   ar
    38    29    30   ar
    39    30    31   ar
    40    31    32   ar
    41     7     1   ar
    42    32    27   ar
    43    14     9   ar
    44    40    34   ar
    45    23    25    1
    46    23    26    1
    47    16    17    1
@<TRIPOS>MOLECULE
*****
 44 47 0 0 0
SMALL
GASTEIGER

@<TRIPOS>ATOM
      1 N          61.7085   86.9614   11.7525 N.ar    1  UNL1       -0.2470
      2 C          62.1902   88.1602   12.5146 C.ar    1  UNL1        0.2657
      3 O          61.5306   89.4922   12.3125 O.2     1  UNL1       -0.2668
      4 C          63.3315   88.0270   13.4788 C.ar    1  UNL1        0.0736
      5 C          63.9911   86.6951   13.6809 C.ar    1  UNL1        0.0847
      6 N          63.5094   85.4963   12.9188 N.ar    1  UNL1       -0.2755
      7 C          62.3681   85.6295   11.9546 C.ar    1  UNL1        0.3341
      8 O          61.8864   84.4306   11.1924 O.2     1  UNL1       -0.2462
      9 C          63.8132   89.2259   14.2410 C.ar    1  UNL1        0.0060
     10 C          63.3484   89.4563   15.6484 C.ar    1  UNL1       -0.0001
     11 C          63.8301   90.6550   16.4106 C.ar    1  UNL1       -0.0029
     12 C          64.7766   91.6234   15.7653 C.ar    1  UNL1       -0.0064
     13 C          65.2415   91.3930   14.3579 C.ar    1  UNL1       -0.0029
     14 C          64.7597   90.1942   13.5957 C.ar    1  UNL1       -0.0001
     15 C          65.2583   92.8222   16.5275 C.3     1  UNL1        0.0959
     16 N          66.7276   93.1074   16.6263 N.3     1  UNL1       -0.2891
     17 H          67.1826   92.2278   16.8707 H       1  UNL1        0.1239
     18 C          67.4651   93.6624   15.4439 C.3     1  UNL1        0.1112
     19 C          68.9320   93.3943   15.2815 C.2     1  UNL1        0.0663
     20 O          69.4145   92.5137   14.1672 O.co2   1  UNL1       -0.5477
     21 O          69.9163   94.0068   16.2334 O.co2   1  UNL1       -0.5477
     22 C          60.5672   87.0946   10.7882 C.3     1  UNL1        0.1334
     23 N          60.6429   88.8742    8.8970 N.3     1  UNL1       -0.3172
     24 C          60.8326   87.4594    9.3577 C.3     1  UNL1        0.0968
     25 H          60.3331   89.4485    9.6810 H       1  UNL1        0.1192
     26 H          59.9400   88.8999    8.1582 H       1  UNL1        0.1192
     27 C          61.2878   86.4095    8.3879 C.ar    1  UNL1       -0.0063
     28 C          62.6966   85.8973    8.4436 C.ar    1  UNL1       -0.0029
     29 C          63.1517   84.8474    7.4738 C.ar    1  UNL1       -0.0003
     30 C          62.1981   84.3097    6.4484 C.ar    1  UNL1       -0.0000
     31 C          60.7894   84.8218    6.3927 C.ar    1  UNL1       -0.0003
     32 C          60.3342   85.8717    7.3625 C.ar    1  UNL1       -0.0029
     33 C          64.1690   84.1643   13.1209 C.3     1  UNL1        0.1394
     34 C          63.3334   82.9250   13.2461 C.ar    1  UNL1        0.0319
     35 C          62.5087   82.6976   14.4783 C.ar    1  UNL1        0.1379
     36 F          62.5197   83.7098   15.5853 F       1  UNL1       -0.2044
     37 C          61.6732   81.4582   14.6034 C.ar    1  UNL1        0.0294
     38 C          61.6623   80.4461   13.4964 C.ar    1  UNL1        0.0022
     39 C          62.4869   80.6734   12.2642 C.ar    1  UNL1        0.0037
     40 C          63.3225   81.9128   12.1390 C.ar    1  UNL1        0.0714
     41 C          64.1471   82.1401   10.9069 C.3     1  UNL1        0.4184
     42 F          64.9718   82.3674    9.6747 F       1  UNL1       -0.1659
     43 F          62.9920   81.7066   10.0538 F       1  UNL1       -0.1659
     44 F          65.3023   82.5735   11.7599 F       1  UNL1       -0.1659
@<TRIPOS>UNITY_ATOM_ATTR
20 1
charge -1
@<TRIPOS>BOND
     1    24    23    1
     2    24    22    1
     3    22     1    1
     4     1     2   ar
     5     2     3    2
     6     2     4   ar
     7     4     9    1
     8     9    10   ar
     9    10    11   ar
    10    11    12   ar
    11    12    15    1
    12    15    16    1
    13    16    18    1
    14    18    19    1
    15    19    20   ar
    16    19    21   ar
    17    12    13   ar
    18    13    14   ar
    19     4     5   ar
    20     5     6   ar
    21     6    33    1
    22    33    34    1
    23    34    35   ar
    24    35    36    1
    25    35    37   ar
    26    37    38   ar
    27    38    39   ar
    28    39    40   ar
    29    40    41    1
    30    41    42    1
    31    41    43    1
    32    41    44    1
    33     6     7   ar
    34     7     8    2
    35    24    27    1
    36    27    28   ar
    37    28    29   ar
    38    29    30   ar
    39    30    31   ar
    40    31    32   ar
    41     7     1   ar
    42    32    27   ar
    43    14     9   ar
    44    40    34   ar
    45    23    25    1
    46    23    26    1
    47    16    17    1
@<TRIPOS>MOLECULE
*****
 44 47 0 0 0
SMALL
GASTEIGER

@<TRIPOS>ATOM
      1 N          63.7378   86.4265   13.4011 N.ar    1  UNL1       -0.2470
      2 C          62.8794   86.5111   12.1740 C.ar    1  UNL1        0.2657
      3 O          62.3941   85.2566   11.5102 O.2     1  UNL1       -0.2668
      4 C          62.5062   87.8503   11.6107 C.ar    1  UNL1        0.0736
      5 C          62.9915   89.1048   12.2745 C.ar    1  UNL1        0.0847
      6 N          63.8499   89.0202   13.5016 N.ar    1  UNL1       -0.2755
      7 C          64.2231   87.6810   14.0649 C.ar    1  UNL1        0.3341
      8 O          65.0816   87.5963   15.2921 O.2     1  UNL1       -0.2462
      9 C          61.6477   87.9349   10.3835 C.ar    1  UNL1        0.0060
     10 C          61.5590   86.7657    9.4482 C.ar    1  UNL1       -0.0001
     11 C          60.7006   86.8503    8.2210 C.ar    1  UNL1       -0.0029
     12 C          59.9308   88.1042    7.9292 C.ar    1  UNL1       -0.0064
     13 C          60.0195   89.2735    8.8646 C.ar    1  UNL1       -0.0029
     14 C          60.8780   89.1888   10.0918 C.ar    1  UNL1       -0.0001
     15 C          59.0723   88.1889    6.7021 C.3     1  UNL1        0.0959
     16 N          58.4073   89.4837    6.3399 N.3     1  UNL1       -0.2891
     17 H          58.1127   89.9181    7.2144 H       1  UNL1        0.1239
     18 C          59.1641   90.5263    5.5718 C.3     1  UNL1        0.1112
     19 C          58.4324   91.6800    4.9522 C.2     1  UNL1        0.0663
     20 O          56.9397   91.7706    5.0680 O.co2   1  UNL1       -0.5477
     21 O          59.1936   92.7430    4.2168 O.co2   1  UNL1       -0.5477
     22 C          64.1110   85.0873   13.9645 C.3     1  UNL1        0.1334
     23 N          62.2312   84.6765   15.7102 N.3     1  UNL1       -0.3172
     24 C          63.0538   84.1990   14.5503 C.3     1  UNL1        0.0968
     25 H          62.5230   85.6191   15.9687 H       1  UNL1        0.1192
     26 H          62.3656   84.0494   16.5034 H       1  UNL1        0.1192
     27 C          62.8191   82.8331   13.9763 C.ar    1  UNL1       -0.0063
     28 C          61.7194   81.9700   14.5198 C.ar    1  UNL1       -0.0029
     29 C          61.4848   80.6042   13.9458 C.ar    1  UNL1       -0.0003
     30 C          62.3499   80.1016   12.8282 C.ar    1  UNL1       -0.0000
     31 C          63.4496   80.9648   12.2846 C.ar    1  UNL1       -0.0003
     32 C          63.6842   82.3306   12.8587 C.ar    1  UNL1       -0.0029
     33 C          64.3352   90.2747   14.1655 C.3     1  UNL1        0.1394
     34 C          65.3869   91.1148   13.5036 C.ar    1  UNL1        0.0319
     35 C          66.7462   91.2420   14.1252 C.ar    1  UNL1        0.1379
     36 F          67.0537   90.5291   15.4086 F       1  UNL1       -0.2044
     37 C          67.7979   92.0822   13.4634 C.ar    1  UNL1        0.0294
     38 C          67.4904   92.7951   12.1799 C.ar    1  UNL1        0.0022
     39 C          66.1312   92.6679   11.5584 C.ar    1  UNL1        0.0037
     40 C          65.0794   91.8278   12.2202 C.ar    1  UNL1        0.0714
     41 C          63.7203   91.7006   11.5986 C.3     1  UNL1        0.4184
     42 F          62.3611   91.5734   10.9770 F       1  UNL1       -0.1659
     43 F          64.3537   91.3446   10.2864 F       1  UNL1       -0.1659
     44 F          63.0868   92.0566   12.9109 F       1  UNL1       -0.1659
@<TRIPOS>UNITY_ATOM_ATTR
20 1
charge -1
@<TRIPOS>BOND
     1    24    23    1
     2    24    22    1
     3    22     1    1
     4     1     2   ar
     5     2     3    2
     6     2     4   ar
     7     4     9    1
     8     9    10   ar
     9    10    11   ar
    10    11    12   ar
    11    12    15    1
    12    15    16    1
    13    16    18    1
    14    18    19    1
    15    19    20   ar
    16    19    21   ar
    17    12    13   ar
    18    13    14   ar
    19     4     5   ar
    20     5     6   ar
    21     6    33    1
    22    33    34    1
    23    34    35   ar
    24    35    36    1
    25    35    37   ar
    26    37    38   ar
    27    38    39   ar
    28    39    40   ar
    29    40    41    1
    30    41    42    1
    31    41    43    1
    32    41    44    1
    33     6     7   ar
    34     7     8    2
    35    24    27    1
    36    27    28   ar
    37    28    29   ar
    38    29    30   ar
    39    30    31   ar
    40    31    32   ar
    41     7     1   ar
    42    32    27   ar
    43    14     9   ar
    44    40    34   ar
    45    23    25    1
    46    23    26    1
    47    16    17    1
@<TRIPOS>MOLECULE
*****
 44 47 0 0 0
SMALL
GASTEIGER

@<TRIPOS>ATOM
      1 N          63.6846   89.2497   13.3251 N.ar    1  UNL1       -0.2470
      2 C          62.7858   89.3364   12.1274 C.ar    1  UNL1        0.2657
      3 O          62.2706   90.6692   11.6713 O.2     1  UNL1       -0.2668
      4 C          62.4022   88.0903   11.3858 C.ar    1  UNL1        0.0736
      5 C          62.9175   86.7574   11.8419 C.ar    1  UNL1        0.0847
      6 N          63.8163   86.6707   13.0396 N.ar    1  UNL1       -0.2755
      7 C          64.1999   87.9168   13.7812 C.ar    1  UNL1        0.3341
      8 O          65.0988   87.8301   14.9790 O.2     1  UNL1       -0.2462
      9 C          61.5034   88.1769   10.1880 C.ar    1  UNL1        0.0060
     10 C          60.8602   89.4828    9.8260 C.ar    1  UNL1       -0.0001
     11 C          59.9614   89.5695    8.6283 C.ar    1  UNL1       -0.0029
     12 C          59.7057   88.3504    7.7925 C.ar    1  UNL1       -0.0064
     13 C          60.3489   87.0445    8.1546 C.ar    1  UNL1       -0.0029
     14 C          61.2477   86.9578    9.3524 C.ar    1  UNL1       -0.0001
     15 C          58.8068   88.4371    6.5948 C.3     1  UNL1        0.0959
     16 N          58.3462   89.7754    6.0981 N.3     1  UNL1       -0.2891
     17 H          58.1000   90.3260    6.9207 H       1  UNL1        0.1239
     18 C          59.2634   90.6237    5.2681 C.3     1  UNL1        0.1112
     19 C          58.7889   91.9441    4.7377 C.2     1  UNL1        0.0663
     20 O          57.9453   91.9952    3.4985 O.co2   1  UNL1       -0.5477
     21 O          59.1580   93.2135    5.4467 O.co2   1  UNL1       -0.5477
     22 C          64.0683   90.4958   14.0668 C.3     1  UNL1        0.1334
     23 N          64.8248   92.0000   12.0882 N.3     1  UNL1       -0.3172
     24 C          65.0547   91.4527   13.4657 C.3     1  UNL1        0.0968
     25 H          63.9574   91.6183   11.7110 H       1  UNL1        0.1192
     26 H          65.6032   91.7371   11.4836 H       1  UNL1        0.1192
     27 C          66.2710   91.8622   14.2422 C.ar    1  UNL1       -0.0063
     28 C          67.6356   91.6923   13.6431 C.ar    1  UNL1       -0.0029
     29 C          68.8519   92.1018   14.4195 C.ar    1  UNL1       -0.0003
     30 C          68.7035   92.6814   15.7951 C.ar    1  UNL1       -0.0000
     31 C          67.3390   92.8513   16.3942 C.ar    1  UNL1       -0.0003
     32 C          66.1227   92.4418   15.6177 C.ar    1  UNL1       -0.0029
     33 C          64.3316   85.3378   13.4957 C.3     1  UNL1        0.1394
     34 C          63.5557   84.0903   13.1931 C.ar    1  UNL1        0.0319
     35 C          63.7108   83.4147   11.8628 C.ar    1  UNL1        0.1379
     36 F          64.6418   83.9868   10.8352 F       1  UNL1       -0.2044
     37 C          62.9350   82.1672   11.5602 C.ar    1  UNL1        0.0294
     38 C          62.0040   81.5951   12.5878 C.ar    1  UNL1        0.0022
     39 C          61.8488   82.2706   13.9180 C.ar    1  UNL1        0.0037
     40 C          62.6247   83.5182   14.2207 C.ar    1  UNL1        0.0714
     41 C          62.4696   84.1937   15.5510 C.3     1  UNL1        0.4184
     42 F          62.3144   84.8692   16.8812 F       1  UNL1       -0.1659
     43 F          63.7636   83.5890   16.0090 F       1  UNL1       -0.1659
     44 F          61.1756   84.7985   15.0930 F       1  UNL1       -0.1659
@<TRIPOS>UNITY_ATOM_ATTR
20 1
charge -1
@<TRIPOS>BOND
     1    24    23    1
     2    24    22    1
     3    22     1    1
     4     1     2   ar
     5     2     3    2
     6     2     4   ar
     7     4     9    1
     8     9    10   ar
     9    10    11   ar
    10    11    12   ar
    11    12    15    1
    12    15    16    1
    13    16    18    1
    14    18    19    1
    15    19    20   ar
    16    19    21   ar
    17    12    13   ar
    18    13    14   ar
    19     4     5   ar
    20     5     6   ar
    21     6    33    1
    22    33    34    1
    23    34    35   ar
    24    35    36    1
    25    35    37   ar
    26    37    38   ar
    27    38    39   ar
    28    39    40   ar
    29    40    41    1
    30    41    42    1
    31    41    43    1
    32    41    44    1
    33     6     7   ar
    34     7     8    2
    35    24    27    1
    36    27    28   ar
    37    28    29   ar
    38    29    30   ar
    39    30    31   ar
    40    31    32   ar
    41     7     1   ar
    42    32    27   ar
    43    14     9   ar
    44    40    34   ar
    45    23    25    1
    46    23    26    1
    47    16    17    1
