@<TRIPOS>MOLECULE
*****
 26 28 0 0 0
SMALL
GASTEIGER

@<TRIPOS>ATOM
      1 C          59.7156   90.3453   11.5244 C.3     1  UNL1        0.0312
      2 C          60.9884   89.8230   10.9269 C.3     1  UNL1        0.1285
      3 N          62.2930   90.4964   11.2346 N.ar    1  UNL1       -0.2908
      4 C          63.1348   91.2724   10.2655 C.ar    1  UNL1        0.1800
      5 N          64.3469   91.7676   10.9975 N.ar    1  UNL1       -0.2195
      6 C          64.2541   91.2977   12.4189 C.ar    1  UNL1        0.1481
      7 C          65.1615   91.4837   13.5987 C.ar    1  UNL1        0.1487
      8 N          66.4309   92.2693   13.4522 N.pl3   1  UNL1       -0.3413
      9 N          64.7995   90.8841   14.9252 N.ar    1  UNL1       -0.2006
     10 C          63.5302   90.0984   15.0718 C.ar    1  UNL1        0.2264
     11 CL         63.1682   89.4988   16.3982 Cl      1  UNL1       -0.0409
     12 N          62.6228   89.9124   13.8919 N.ar    1  UNL1       -0.1976
     13 C          62.9847   90.5121   12.5655 C.ar    1  UNL1        0.1682
     14 H          66.6684   92.6629   12.5816 H       1  UNL1        0.1438
     15 H          67.0264   92.3914   14.2265 H       1  UNL1        0.1438
     16 C          60.9568   88.6274   10.0218 C.ar    1  UNL1        0.0827
     17 C          61.9328   87.5066   10.2253 C.ar    1  UNL1        0.0535
     18 C          61.9011   86.3109    9.3202 C.ar    1  UNL1        0.1416
     19 C          60.8934   86.2359    8.2115 C.ar    1  UNL1        0.0575
     20 C          59.9175   87.3567    8.0080 C.ar    1  UNL1        0.1016
     21 N          59.9492   88.5524    8.9131 N.ar    1  UNL1       -0.2461
     22 O          62.8770   85.1901    9.5236 O.3     1  UNL1       -0.4692
     23 C          62.9158   84.4576   10.8321 C.3     1  UNL1        0.2772
     24 C          63.9923   83.4464   11.0939 C.3     1  UNL1        0.3615
     25 F          64.4289   82.5159   10.0014 F       1  UNL1       -0.1942
     26 F          64.6322   83.3658   12.4482 F       1  UNL1       -0.1942
@<TRIPOS>BOND
     1     2     1    1
     2     2    16    1
     3    16    17   ar
     4    17    18   ar
     5    18    22    1
     6    22    23    1
     7    23    24    1
     8    24    25    1
     9    24    26    1
    10    18    19   ar
    11    19    20   ar
    12    20    21   ar
    13     2     3    1
    14     3     4   ar
    15     4     5   ar
    16     5     6   ar
    17     6     7   ar
    18     7     8    1
    19     7     9   ar
    20     9    10   ar
    21    10    11    1
    22    10    12   ar
    23    12    13   ar
    24    21    16   ar
    25    13     3   ar
    26    13     6   ar
    27     8    14    1
    28     8    15    1
@<TRIPOS>MOLECULE
*****
 26 28 0 0 0
SMALL
GASTEIGER

@<TRIPOS>ATOM
      1 C          63.1255   85.2587    8.2157 C.3     1  UNL1        0.0312
      2 C          62.5902   85.4364    9.6056 C.3     1  UNL1        0.1285
      3 N          61.6422   86.5593    9.9063 N.ar    1  UNL1       -0.2908
      4 C          60.2972   86.7702    9.2766 C.ar    1  UNL1        0.1800
      5 N          59.6965   88.0096    9.8706 N.ar    1  UNL1       -0.2195
      6 C          60.6702   88.5648   10.8675 C.ar    1  UNL1        0.1481
      7 C          60.6173   89.7707   11.7580 C.ar    1  UNL1        0.1487
      8 N          59.4147   90.6670   11.7359 N.pl3   1  UNL1       -0.3413
      9 N          61.7668   90.0802   12.6705 N.ar    1  UNL1       -0.2006
     10 C          62.9694   89.1839   12.6925 C.ar    1  UNL1        0.2264
     11 CL         64.1189   89.4934   13.6050 Cl      1  UNL1       -0.0409
     12 N          63.0223   87.9779   11.8020 N.ar    1  UNL1       -0.1976
     13 C          61.8727   87.6684   10.8895 C.ar    1  UNL1        0.1682
     14 H          58.6603   90.4639   11.1370 H       1  UNL1        0.1438
     15 H          59.3800   91.4585   12.3204 H       1  UNL1        0.1438
     16 C          63.0029   84.4913   10.6948 C.ar    1  UNL1        0.0827
     17 C          62.4510   84.6561   12.0798 C.ar    1  UNL1        0.0535
     18 C          62.8637   83.7110   13.1690 C.ar    1  UNL1        0.1416
     19 C          63.8284   82.6010   12.8732 C.ar    1  UNL1        0.0575
     20 C          64.3803   82.4362   11.4882 C.ar    1  UNL1        0.1016
     21 N          63.9676   83.3814   10.3990 N.ar    1  UNL1       -0.2461
     22 O          62.3118   83.8758   14.5540 O.3     1  UNL1       -0.4692
     23 C          63.1404   84.5316   15.6184 C.3     1  UNL1        0.2772
     24 C          64.2063   85.5165   15.2388 C.3     1  UNL1        0.3615
     25 F          64.0109   86.9775   15.5172 F       1  UNL1       -0.1942
     26 F          65.4673   85.0404   14.5807 F       1  UNL1       -0.1942
@<TRIPOS>BOND
     1     2     1    1
     2     2    16    1
     3    16    17   ar
     4    17    18   ar
     5    18    22    1
     6    22    23    1
     7    23    24    1
     8    24    25    1
     9    24    26    1
    10    18    19   ar
    11    19    20   ar
    12    20    21   ar
    13     2     3    1
    14     3     4   ar
    15     4     5   ar
    16     5     6   ar
    17     6     7   ar
    18     7     8    1
    19     7     9   ar
    20     9    10   ar
    21    10    11    1
    22    10    12   ar
    23    12    13   ar
    24    21    16   ar
    25    13     3   ar
    26    13     6   ar
    27     8    14    1
    28     8    15    1
@<TRIPOS>MOLECULE
*****
 26 28 0 0 0
SMALL
GASTEIGER

@<TRIPOS>ATOM
      1 C          64.2432   88.7331   14.4765 C.3     1  UNL1        0.0312
      2 C          64.1525   89.8808   13.5151 C.3     1  UNL1        0.1285
      3 N          63.2258   89.8020   12.3382 N.ar    1  UNL1       -0.2908
      4 C          62.6857   90.9663   11.5618 C.ar    1  UNL1        0.1800
      5 N          61.8025   90.4289   10.4750 N.ar    1  UNL1       -0.2195
      6 C          61.7968   88.9325   10.5797 C.ar    1  UNL1        0.1481
      7 C          61.1042   87.8727    9.7753 C.ar    1  UNL1        0.1487
      8 N          60.2246   88.2602    8.6237 N.pl3   1  UNL1       -0.3413
      9 N          61.2913   86.4254   10.1224 N.ar    1  UNL1       -0.2006
     10 C          62.1710   86.0380   11.2740 C.ar    1  UNL1        0.2264
     11 CL         62.3581   84.5908   11.6211 Cl      1  UNL1       -0.0409
     12 N          62.8635   87.0979   12.0784 N.ar    1  UNL1       -0.1976
     13 C          62.6764   88.5451   11.7313 C.ar    1  UNL1        0.1682
     14 H          60.1018   89.2100    8.3958 H       1  UNL1        0.1438
     15 H          59.7700   87.5646    8.0957 H       1  UNL1        0.1438
     16 C          64.9887   91.1074   13.7304 C.ar    1  UNL1        0.0827
     17 C          65.4384   91.9243   12.5554 C.ar    1  UNL1        0.0535
     18 C          66.2745   93.1508   12.7708 C.ar    1  UNL1        0.1416
     19 C          66.6610   93.5606   14.1611 C.ar    1  UNL1        0.0575
     20 C          66.2112   92.7437   15.3360 C.ar    1  UNL1        0.1016
     21 N          65.3750   91.5172   15.1207 N.ar    1  UNL1       -0.2461
     22 O          66.7243   93.9677   11.5959 O.3     1  UNL1       -0.4692
     23 C          66.8411   93.3331   10.2418 C.3     1  UNL1        0.2772
     24 C          67.9772   92.3992    9.9466 C.3     1  UNL1        0.3615
     25 F          68.4483   92.2141    8.5346 F       1  UNL1       -0.1942
     26 F          68.6420   91.6503   11.0634 F       1  UNL1       -0.1942
@<TRIPOS>BOND
     1     2     1    1
     2     2    16    1
     3    16    17   ar
     4    17    18   ar
     5    18    22    1
     6    22    23    1
     7    23    24    1
     8    24    25    1
     9    24    26    1
    10    18    19   ar
    11    19    20   ar
    12    20    21   ar
    13     2     3    1
    14     3     4   ar
    15     4     5   ar
    16     5     6   ar
    17     6     7   ar
    18     7     8    1
    19     7     9   ar
    20     9    10   ar
    21    10    11    1
    22    10    12   ar
    23    12    13   ar
    24    21    16   ar
    25    13     3   ar
    26    13     6   ar
    27     8    14    1
    28     8    15    1
@<TRIPOS>MOLECULE
*****
 26 28 0 0 0
SMALL
GASTEIGER

@<TRIPOS>ATOM
      1 C          64.5290   82.7635   11.7064 C.3     1  UNL1        0.0312
      2 C          63.5709   83.8591   12.0689 C.3     1  UNL1        0.1285
      3 N          63.2462   84.1254   13.5090 N.ar    1  UNL1       -0.2908
      4 C          62.6559   83.1424   14.4760 C.ar    1  UNL1        0.1800
      5 N          62.4997   83.8309   15.7995 N.ar    1  UNL1       -0.2195
      6 C          62.9934   85.2395   15.6503 C.ar    1  UNL1        0.1481
      7 C          63.0825   86.3798   16.6207 C.ar    1  UNL1        0.1487
      8 N          62.6211   86.1979   18.0363 N.pl3   1  UNL1       -0.3413
      9 N          63.6329   87.7023   16.1754 N.ar    1  UNL1       -0.2006
     10 C          64.0943   87.8843   14.7598 C.ar    1  UNL1        0.2264
     11 CL         64.6447   89.2066   14.3144 Cl      1  UNL1       -0.0409
     12 N          64.0052   86.7438   13.7894 N.ar    1  UNL1       -0.1976
     13 C          63.4548   85.4215   14.2347 C.ar    1  UNL1        0.1682
     14 H          62.2598   85.3299   18.3286 H       1  UNL1        0.1438
     15 H          62.6795   86.9463   18.6732 H       1  UNL1        0.1438
     16 C          62.9374   84.6885   10.9915 C.ar    1  UNL1        0.0827
     17 C          61.8605   85.6733   11.3386 C.ar    1  UNL1        0.0535
     18 C          61.2271   86.5026   10.2612 C.ar    1  UNL1        0.1416
     19 C          61.6705   86.3473    8.8366 C.ar    1  UNL1        0.0575
     20 C          62.7474   85.3624    8.4896 C.ar    1  UNL1        0.1016
     21 N          63.3808   84.5331    9.5670 N.ar    1  UNL1       -0.2461
     22 O          60.1502   87.4875   10.6082 O.3     1  UNL1       -0.4692
     23 C          60.5094   88.8011   11.2368 C.3     1  UNL1        0.2772
     24 C          61.8224   89.4518   10.9163 C.3     1  UNL1        0.3615
     25 F          61.8717   90.6152    9.9705 F       1  UNL1       -0.1942
     26 F          63.0859   88.9393   11.5414 F       1  UNL1       -0.1942
@<TRIPOS>BOND
     1     2     1    1
     2     2    16    1
     3    16    17   ar
     4    17    18   ar
     5    18    22    1
     6    22    23    1
     7    23    24    1
     8    24    25    1
     9    24    26    1
    10    18    19   ar
    11    19    20   ar
    12    20    21   ar
    13     2     3    1
    14     3     4   ar
    15     4     5   ar
    16     5     6   ar
    17     6     7   ar
    18     7     8    1
    19     7     9   ar
    20     9    10   ar
    21    10    11    1
    22    10    12   ar
    23    12    13   ar
    24    21    16   ar
    25    13     3   ar
    26    13     6   ar
    27     8    14    1
    28     8    15    1
@<TRIPOS>MOLECULE
*****
 26 28 0 0 0
SMALL
GASTEIGER

@<TRIPOS>ATOM
      1 C          62.3729   90.8918   10.0850 C.3     1  UNL1        0.0312
      2 C          62.7993   90.0246   11.2321 C.3     1  UNL1        0.1285
      3 N          63.5315   90.6257   12.3951 N.ar    1  UNL1       -0.2908
      4 C          63.2780   90.3315   13.8440 C.ar    1  UNL1        0.1800
      5 N          64.2356   91.1505   14.6577 N.ar    1  UNL1       -0.2195
      6 C          65.0810   91.9509   13.7117 C.ar    1  UNL1        0.1481
      7 C          66.1907   92.9332   13.9430 C.ar    1  UNL1        0.1487
      8 N          66.6259   93.2575   15.3414 N.pl3   1  UNL1       -0.3413
      9 N          66.8653   93.5911   12.7759 N.ar    1  UNL1       -0.2006
     10 C          66.4302   93.2668   11.3776 C.ar    1  UNL1        0.2264
     11 CL         67.1047   93.9247   10.2105 Cl      1  UNL1       -0.0409
     12 N          65.3203   92.2844   11.1463 N.ar    1  UNL1       -0.1976
     13 C          64.6458   91.6265   12.3134 C.ar    1  UNL1        0.1682
     14 H          66.1831   92.8257   16.1074 H       1  UNL1        0.1438
     15 H          67.3543   93.9023   15.4932 H       1  UNL1        0.1438
     16 C          62.4934   88.5562   11.2163 C.ar    1  UNL1        0.0827
     17 C          61.5881   87.9900   10.1627 C.ar    1  UNL1        0.0535
     18 C          61.2823   86.5216   10.1469 C.ar    1  UNL1        0.1416
     19 C          61.8817   85.6193   11.1846 C.ar    1  UNL1        0.0575
     20 C          62.7870   86.1856   12.2381 C.ar    1  UNL1        0.1016
     21 N          63.0928   87.6540   12.2539 N.ar    1  UNL1       -0.2461
     22 O          60.3771   85.9553    9.0934 O.3     1  UNL1       -0.4692
     23 C          60.7797   86.0112    7.6495 C.3     1  UNL1        0.2772
     24 C          61.8643   85.1101    7.1380 C.3     1  UNL1        0.3615
     25 F          61.5921   84.1872    5.9872 F       1  UNL1       -0.1942
     26 F          63.2211   85.1319    7.7772 F       1  UNL1       -0.1942
@<TRIPOS>BOND
     1     2     1    1
     2     2    16    1
     3    16    17   ar
     4    17    18   ar
     5    18    22    1
     6    22    23    1
     7    23    24    1
     8    24    25    1
     9    24    26    1
    10    18    19   ar
    11    19    20   ar
    12    20    21   ar
    13     2     3    1
    14     3     4   ar
    15     4     5   ar
    16     5     6   ar
    17     6     7   ar
    18     7     8    1
    19     7     9   ar
    20     9    10   ar
    21    10    11    1
    22    10    12   ar
    23    12    13   ar
    24    21    16   ar
    25    13     3   ar
    26    13     6   ar
    27     8    14    1
    28     8    15    1
@<TRIPOS>MOLECULE
*****
 26 28 0 0 0
SMALL
GASTEIGER

@<TRIPOS>ATOM
      1 C          60.1298   90.5696   11.1880 C.3     1  UNL1        0.0312
      2 C          61.4649   89.8859   11.1840 C.3     1  UNL1        0.1285
      3 N          62.7130   90.6761   11.4445 N.ar    1  UNL1       -0.2908
      4 C          63.5247   91.4067   10.4162 C.ar    1  UNL1        0.1800
      5 N          64.6819   92.0565   11.1152 N.ar    1  UNL1       -0.2195
      6 C          64.5854   91.7276   12.5755 C.ar    1  UNL1        0.1481
      7 C          65.4483   92.0947   13.7462 C.ar    1  UNL1        0.1487
      8 N          66.6651   92.9479   13.5427 N.pl3   1  UNL1       -0.3413
      9 N          65.0944   91.6086   15.1205 N.ar    1  UNL1       -0.2006
     10 C          63.8776   90.7555   15.3240 C.ar    1  UNL1        0.2264
     11 CL         63.5236   90.2694   16.6982 Cl      1  UNL1       -0.0409
     12 N          63.0146   90.3884   14.1532 N.ar    1  UNL1       -0.1976
     13 C          63.3685   90.8744   12.7790 C.ar    1  UNL1        0.1682
     14 H          66.8974   93.2669   12.6408 H       1  UNL1        0.1438
     15 H          67.2315   93.1888   14.3111 H       1  UNL1        0.1438
     16 C          61.5519   88.4120   10.9196 C.ar    1  UNL1        0.0827
     17 C          60.7905   87.8089    9.7765 C.ar    1  UNL1        0.0535
     18 C          60.8775   86.3350    9.5120 C.ar    1  UNL1        0.1416
     19 C          61.7259   85.4641   10.3906 C.ar    1  UNL1        0.0575
     20 C          62.4872   86.0672   11.5336 C.ar    1  UNL1        0.1016
     21 N          62.4003   87.5411   11.7981 N.ar    1  UNL1       -0.2461
     22 O          60.1161   85.7319    8.3689 O.3     1  UNL1       -0.4692
     23 C          60.7099   85.7276    6.9915 C.3     1  UNL1        0.2772
     24 C          61.8644   84.8237    6.6752 C.3     1  UNL1        0.3615
     25 F          63.1262   84.9085    7.4821 F       1  UNL1       -0.1942
     26 F          61.7572   83.8350    5.5522 F       1  UNL1       -0.1942
@<TRIPOS>BOND
     1     2     1    1
     2     2    16    1
     3    16    17   ar
     4    17    18   ar
     5    18    22    1
     6    22    23    1
     7    23    24    1
     8    24    25    1
     9    24    26    1
    10    18    19   ar
    11    19    20   ar
    12    20    21   ar
    13     2     3    1
    14     3     4   ar
    15     4     5   ar
    16     5     6   ar
    17     6     7   ar
    18     7     8    1
    19     7     9   ar
    20     9    10   ar
    21    10    11    1
    22    10    12   ar
    23    12    13   ar
    24    21    16   ar
    25    13     3   ar
    26    13     6   ar
    27     8    14    1
    28     8    15    1
@<TRIPOS>MOLECULE
*****
 26 28 0 0 0
SMALL
GASTEIGER

@<TRIPOS>ATOM
      1 C          59.9897   88.2095   10.8694 C.3     1  UNL1        0.0312
      2 C          61.4800   88.0638   10.7810 C.3     1  UNL1        0.1285
      3 N          62.0830   86.7464   10.3924 N.ar    1  UNL1       -0.2908
      4 C          62.4408   86.3168    9.0005 C.ar    1  UNL1        0.1800
      5 N          63.0130   84.9323    9.0754 N.ar    1  UNL1       -0.2195
      6 C          63.0089   84.5062   10.5136 C.ar    1  UNL1        0.1481
      7 C          63.4543   83.2422   11.1872 C.ar    1  UNL1        0.1487
      8 N          64.0291   82.1209   10.3733 N.pl3   1  UNL1       -0.3413
      9 N          63.3249   83.0993   12.6748 N.ar    1  UNL1       -0.2006
     10 C          62.7501   84.2205   13.4888 C.ar    1  UNL1        0.2264
     11 CL         62.6208   84.0776   14.9763 Cl      1  UNL1       -0.0409
     12 N          62.3048   85.4846   12.8151 N.ar    1  UNL1       -0.1976
     13 C          62.4341   85.6274   11.3276 C.ar    1  UNL1        0.1682
     14 H          64.1140   82.2147    9.3969 H       1  UNL1        0.1438
     15 H          64.3214   81.2913   10.8154 H       1  UNL1        0.1438
     16 C          62.3672   89.2354   11.0811 C.ar    1  UNL1        0.0827
     17 C          63.0211   89.3559   12.4258 C.ar    1  UNL1        0.0535
     18 C          63.9084   90.5275   12.7260 C.ar    1  UNL1        0.1416
     19 C          64.1418   91.5786   11.6816 C.ar    1  UNL1        0.0575
     20 C          63.4879   91.4581   10.3370 C.ar    1  UNL1        0.1016
     21 N          62.6007   90.2865   10.0368 N.ar    1  UNL1       -0.2461
     22 O          64.5622   90.6480   14.0705 O.3     1  UNL1       -0.4692
     23 C          63.7685   90.3885   15.3165 C.3     1  UNL1        0.2772
     24 C          63.7168   89.0070   15.8988 C.3     1  UNL1        0.3615
     25 F          63.1428   88.7912   17.2678 F       1  UNL1       -0.1942
     26 F          64.2392   87.8416   15.1122 F       1  UNL1       -0.1942
@<TRIPOS>BOND
     1     2     1    1
     2     2    16    1
     3    16    17   ar
     4    17    18   ar
     5    18    22    1
     6    22    23    1
     7    23    24    1
     8    24    25    1
     9    24    26    1
    10    18    19   ar
    11    19    20   ar
    12    20    21   ar
    13     2     3    1
    14     3     4   ar
    15     4     5   ar
    16     5     6   ar
    17     6     7   ar
    18     7     8    1
    19     7     9   ar
    20     9    10   ar
    21    10    11    1
    22    10    12   ar
    23    12    13   ar
    24    21    16   ar
    25    13     3   ar
    26    13     6   ar
    27     8    14    1
    28     8    15    1
@<TRIPOS>MOLECULE
*****
 26 28 0 0 0
SMALL
GASTEIGER

@<TRIPOS>ATOM
      1 C          65.5522   90.5052   14.3898 C.3     1  UNL1        0.0312
      2 C          64.3716   89.6317   14.0846 C.3     1  UNL1        0.1285
      3 N          63.5490   89.8847   12.8560 N.ar    1  UNL1       -0.2908
      4 C          63.2527   91.2264   12.2543 C.ar    1  UNL1        0.1800
      5 N          62.3989   91.0114   11.0399 N.ar    1  UNL1       -0.2195
      6 C          62.1676   89.5368   10.8911 C.ar    1  UNL1        0.1481
      7 C          61.4015   88.7382    9.8785 C.ar    1  UNL1        0.1487
      8 N          60.6907   89.4345    8.7561 N.pl3   1  UNL1       -0.3413
      9 N          61.3463   87.2432    9.9884 N.ar    1  UNL1       -0.2006
     10 C          62.0571   86.5469   11.1108 C.ar    1  UNL1        0.2264
     11 CL         62.0019   85.0519   11.2207 Cl      1  UNL1       -0.0409
     12 N          62.8232   87.3456   12.1234 N.ar    1  UNL1       -0.1976
     13 C          62.8784   88.8405   12.0135 C.ar    1  UNL1        0.1682
     14 H          60.7270   90.4156    8.6839 H       1  UNL1        0.1438
     15 H          60.1879   88.9103    8.0915 H       1  UNL1        0.1438
     16 C          64.0136   88.5051   15.0080 C.ar    1  UNL1        0.0827
     17 C          64.4362   87.1037   14.6803 C.ar    1  UNL1        0.0535
     18 C          64.0782   85.9771   15.6036 C.ar    1  UNL1        0.1416
     19 C          63.2976   86.2519   16.8547 C.ar    1  UNL1        0.0575
     20 C          62.8750   87.6533   17.1824 C.ar    1  UNL1        0.1016
     21 N          63.2330   88.7799   16.2590 N.ar    1  UNL1       -0.2461
     22 O          64.5008   84.5756   15.2760 O.3     1  UNL1       -0.4692
     23 C          64.3029   84.0372   13.8900 C.3     1  UNL1        0.2772
     24 C          63.5865   82.7352   13.6864 C.3     1  UNL1        0.3615
     25 F          64.2985   81.5792   13.0485 F       1  UNL1       -0.1942
     26 F          62.1582   82.5891   14.1207 F       1  UNL1       -0.1942
@<TRIPOS>BOND
     1     2     1    1
     2     2    16    1
     3    16    17   ar
     4    17    18   ar
     5    18    22    1
     6    22    23    1
     7    23    24    1
     8    24    25    1
     9    24    26    1
    10    18    19   ar
    11    19    20   ar
    12    20    21   ar
    13     2     3    1
    14     3     4   ar
    15     4     5   ar
    16     5     6   ar
    17     6     7   ar
    18     7     8    1
    19     7     9   ar
    20     9    10   ar
    21    10    11    1
    22    10    12   ar
    23    12    13   ar
    24    21    16   ar
    25    13     3   ar
    26    13     6   ar
    27     8    14    1
    28     8    15    1
@<TRIPOS>MOLECULE
*****
 26 28 0 0 0
SMALL
GASTEIGER

@<TRIPOS>ATOM
      1 C          63.4278   90.5739   16.7689 C.3     1  UNL1        0.0312
      2 C          63.6193   89.7006   15.5645 C.3     1  UNL1        0.1285
      3 N          63.8229   90.3200   14.2136 N.ar    1  UNL1       -0.2908
      4 C          63.0882   89.9567   12.9573 C.ar    1  UNL1        0.1800
      5 N          63.6081   90.8237   11.8492 N.ar    1  UNL1       -0.2195
      6 C          64.6641   91.7228   12.4206 C.ar    1  UNL1        0.1481
      7 C          65.5219   92.7848   11.7990 C.ar    1  UNL1        0.1487
      8 N          65.3891   93.0961   10.3377 N.pl3   1  UNL1       -0.3413
      9 N          66.5125   93.5355   12.6388 N.ar    1  UNL1       -0.2006
     10 C          66.6453   93.2242   14.1001 C.ar    1  UNL1        0.2264
     11 CL         67.6358   93.9748   14.9399 Cl      1  UNL1       -0.0409
     12 N          65.7874   92.1622   14.7217 N.ar    1  UNL1       -0.1976
     13 C          64.7968   91.4115   13.8819 C.ar    1  UNL1        0.1682
     14 H          64.7390   92.6034    9.7865 H       1  UNL1        0.1438
     15 H          65.9522   93.7931    9.9298 H       1  UNL1        0.1438
     16 C          63.6073   88.2078   15.7110 C.ar    1  UNL1        0.0827
     17 C          64.3264   87.3504   14.7120 C.ar    1  UNL1        0.0535
     18 C          64.3144   85.8576   14.8585 C.ar    1  UNL1        0.1416
     19 C          63.5834   85.2222   16.0039 C.ar    1  UNL1        0.0575
     20 C          62.8644   86.0796   17.0028 C.ar    1  UNL1        0.1016
     21 N          62.8764   87.5724   16.8563 N.ar    1  UNL1       -0.2461
     22 O          65.0334   85.0002   13.8595 O.3     1  UNL1       -0.4692
     23 C          64.3406   83.8178   13.2496 C.3     1  UNL1        0.2772
     24 C          63.1248   84.0198   12.3946 C.3     1  UNL1        0.3615
     25 F          62.6777   85.4077   12.0425 F       1  UNL1       -0.1942
     26 F          62.3561   82.8340   11.8917 F       1  UNL1       -0.1942
@<TRIPOS>BOND
     1     2     1    1
     2     2    16    1
     3    16    17   ar
     4    17    18   ar
     5    18    22    1
     6    22    23    1
     7    23    24    1
     8    24    25    1
     9    24    26    1
    10    18    19   ar
    11    19    20   ar
    12    20    21   ar
    13     2     3    1
    14     3     4   ar
    15     4     5   ar
    16     5     6   ar
    17     6     7   ar
    18     7     8    1
    19     7     9   ar
    20     9    10   ar
    21    10    11    1
    22    10    12   ar
    23    12    13   ar
    24    21    16   ar
    25    13     3   ar
    26    13     6   ar
    27     8    14    1
    28     8    15    1
