@<TRIPOS>MOLECULE
*****
 38 42 0 0 0
SMALL
GASTEIGER

@<TRIPOS>ATOM
      1 C          63.5245   86.9369   16.4394 C.3     1  UNL1        0.0950
      2 C          62.7685   87.3128   17.6792 C.3     1  UNL1        0.0206
      3 N          63.7601   85.4916   16.1138 N.3     1  UNL1       -0.1790
      4 H          64.7419   85.3010   16.3140 H       1  UNL1        0.1488
      5 S          63.4937   84.9818   14.7285 S.O2    1  UNL1        0.0625
      6 O          62.0243   84.9390   15.0269 O.2     1  UNL1       -0.1529
      7 O          64.9630   85.0247   14.4302 O.2     1  UNL1       -0.1529
      8 C          63.4512   81.8500   13.8124 C.3     1  UNL1        0.0554
      9 C          63.2077   83.0325   12.9221 C.ar    1  UNL1        0.0986
     10 N          62.9020   82.9830   11.4545 N.ar    1  UNL1       -0.1726
     11 N          62.7326   84.3920   10.9685 N.ar    1  UNL1       -0.2558
     12 C          62.9336   85.3122   12.1358 C.ar    1  UNL1        0.0756
     13 C          62.8548   86.8097   12.1017 C.3     1  UNL1        0.0532
     14 C          63.2273   84.4720   13.3433 C.ar    1  UNL1        0.1501
     15 C          62.4175   84.8077    9.5621 C.3     1  UNL1        0.1048
     16 C          61.2786   85.6862    9.1366 C.3     1  UNL1        0.0243
     17 C          61.3432   85.8393    7.6459 C.3     1  UNL1        0.0021
     18 C          62.5220   85.0553    7.1500 C.3     1  UNL1        0.0021
     19 C          63.1860   84.4177    8.3343 C.3     1  UNL1        0.0243
     20 C          64.0449   88.0061   15.5252 C.3     1  UNL1        0.1046
     21 N          63.2299   89.2400   15.2737 N.pl3   1  UNL1       -0.3315
     22 H          62.6046   89.5654   15.9610 H       1  UNL1        0.1469
     23 C          63.3676   89.9781   13.9751 C.ar    1  UNL1        0.0477
     24 C          62.3199   89.8277   12.9123 C.ar    1  UNL1        0.0144
     25 C          62.4576   90.5657   11.6137 C.ar    1  UNL1        0.0028
     26 C          63.6430   91.4542   11.3780 C.ar    1  UNL1        0.0193
     27 C          64.6906   91.6046   12.4409 C.ar    1  UNL1        0.0855
     28 C          64.5529   90.8665   13.7394 C.ar    1  UNL1        0.0517
     29 C          65.7366   91.2089   14.5950 C.ar    1  UNL1        0.1232
     30 N          66.6057   92.1585   13.8252 N.ar    1  UNL1       -0.1634
     31 N          65.9593   92.4031   12.4939 N.ar    1  UNL1       -0.2281
     32 C          66.4887   93.2903   11.4064 C.ar    1  UNL1        0.1021
     33 C          67.2624   92.6987   10.2657 C.ar    1  UNL1        0.0247
     34 C          67.7917   93.5860    9.1783 C.ar    1  UNL1        0.0512
     35 C          67.5473   95.0650    9.2315 C.ar    1  UNL1        0.2224
     36 F          68.0767   95.9522    8.1441 F       1  UNL1       -0.1832
     37 N          66.7736   95.6566   10.3722 N.ar    1  UNL1       -0.2149
     38 C          66.2442   94.7693   11.4596 C.ar    1  UNL1        0.1203
@<TRIPOS>BOND
     1     8     9    1
     2     9    10   ar
     3    10    11   ar
     4    11    15    1
     5    15    16    1
     6    16    17    1
     7    17    18    1
     8    18    19    1
     9    11    12   ar
    10    12    13    1
    11    12    14   ar
    12    14     5    1
    13     5     6    2
    14     5     7    2
    15     5     3    1
    16     3     1    1
    17     1     2    1
    18     1    20    1
    19    20    21    1
    20    21    23    1
    21    23    24   ar
    22    24    25   ar
    23    25    26   ar
    24    26    27   ar
    25    27    28   ar
    26    28    29   ar
    27    29    30   ar
    28    30    31   ar
    29    31    32    1
    30    32    33   ar
    31    33    34   ar
    32    34    35   ar
    33    35    36    1
    34    35    37   ar
    35    37    38   ar
    36    14     9   ar
    37    28    23   ar
    38    38    32   ar
    39    19    15    1
    40    31    27   ar
    41     3     4    1
    42    21    22    1
@<TRIPOS>MOLECULE
*****
 38 42 0 0 0
SMALL
GASTEIGER

@<TRIPOS>ATOM
      1 C          63.6380   87.1338   16.1923 C.3     1  UNL1        0.0950
      2 C          62.9172   87.6872   17.3857 C.3     1  UNL1        0.0206
      3 N          63.9155   85.6626   16.0995 N.3     1  UNL1       -0.1790
      4 H          64.9098   85.5379   16.2902 H       1  UNL1        0.1488
      5 S          63.6224   84.9228   14.8280 S.O2    1  UNL1        0.0625
      6 O          65.0818   84.9396   14.4818 O.2     1  UNL1       -0.1529
      7 O          62.1630   84.9061   15.1742 O.2     1  UNL1       -0.1529
      8 C          62.8125   86.2700   11.9682 C.3     1  UNL1        0.0554
      9 C          62.9570   84.8023   12.2420 C.ar    1  UNL1        0.0986
     10 N          62.7546   83.6962   11.2493 N.ar    1  UNL1       -0.1726
     11 N          63.0018   82.3933   11.9502 N.ar    1  UNL1       -0.2558
     12 C          63.3570   82.6942   13.3762 C.ar    1  UNL1        0.0756
     13 C          63.6827   81.6837   14.4358 C.3     1  UNL1        0.0532
     14 C          63.3293   84.1831   13.5565 C.ar    1  UNL1        0.1501
     15 C          62.9100   81.0290   11.3336 C.3     1  UNL1        0.1048
     16 C          63.0969   80.7035    9.8813 C.3     1  UNL1        0.0243
     17 C          62.9175   79.2240    9.7111 C.3     1  UNL1        0.0021
     18 C          62.6197   78.6351   11.0582 C.3     1  UNL1        0.0021
     19 C          62.6150   79.7507   12.0610 C.3     1  UNL1        0.0243
     20 C          64.0814   88.0516   15.0918 C.3     1  UNL1        0.1046
     21 N          63.3755   89.3570   14.8739 N.pl3   1  UNL1       -0.3315
     22 H          62.8070   89.7338   15.5839 H       1  UNL1        0.1469
     23 C          63.5358   90.0885   13.5741 C.ar    1  UNL1        0.0477
     24 C          62.6243   89.7811   12.4232 C.ar    1  UNL1        0.0144
     25 C          62.7846   90.5126   11.1235 C.ar    1  UNL1        0.0028
     26 C          63.8564   91.5514   10.9747 C.ar    1  UNL1        0.0193
     27 C          64.7679   91.8587   12.1257 C.ar    1  UNL1        0.0855
     28 C          64.6076   91.1273   13.4253 C.ar    1  UNL1        0.0517
     29 C          65.6471   91.6404   14.3774 C.ar    1  UNL1        0.1232
     30 N          66.4498   92.6890   13.6660 N.ar    1  UNL1       -0.1634
     31 N          65.9065   92.8239   12.2744 N.ar    1  UNL1       -0.2281
     32 C          66.4128   93.7597   11.2170 C.ar    1  UNL1        0.1021
     33 C          67.2087   93.2270   10.0627 C.ar    1  UNL1        0.0247
     34 C          67.7150   94.1628    9.0053 C.ar    1  UNL1        0.0512
     35 C          67.4254   95.6314    9.1024 C.ar    1  UNL1        0.2224
     36 F          67.9317   96.5672    8.0451 F       1  UNL1       -0.1832
     37 N          66.6294   96.1641   10.2568 N.ar    1  UNL1       -0.2149
     38 C          66.1231   95.2283   11.3141 C.ar    1  UNL1        0.1203
@<TRIPOS>BOND
     1     8     9    1
     2     9    10   ar
     3    10    11   ar
     4    11    15    1
     5    15    16    1
     6    16    17    1
     7    17    18    1
     8    18    19    1
     9    11    12   ar
    10    12    13    1
    11    12    14   ar
    12    14     5    1
    13     5     6    2
    14     5     7    2
    15     5     3    1
    16     3     1    1
    17     1     2    1
    18     1    20    1
    19    20    21    1
    20    21    23    1
    21    23    24   ar
    22    24    25   ar
    23    25    26   ar
    24    26    27   ar
    25    27    28   ar
    26    28    29   ar
    27    29    30   ar
    28    30    31   ar
    29    31    32    1
    30    32    33   ar
    31    33    34   ar
    32    34    35   ar
    33    35    36    1
    34    35    37   ar
    35    37    38   ar
    36    14     9   ar
    37    28    23   ar
    38    38    32   ar
    39    19    15    1
    40    31    27   ar
    41     3     4    1
    42    21    22    1
@<TRIPOS>MOLECULE
*****
 38 42 0 0 0
SMALL
GASTEIGER

@<TRIPOS>ATOM
      1 C          63.1811   89.5779   15.7461 C.3     1  UNL1        0.0950
      2 C          63.1184   88.4357   16.7163 C.3     1  UNL1        0.0206
      3 N          63.9622   90.8117   16.0894 N.3     1  UNL1       -0.1790
      4 H          63.2875   91.5710   16.1822 H       1  UNL1        0.1488
      5 S          65.0385   91.2993   15.1654 S.O2    1  UNL1        0.0625
      6 O          65.3586   89.8826   14.7907 O.2     1  UNL1       -0.1529
      7 O          64.7184   92.7160   15.5402 O.2     1  UNL1       -0.1529
      8 C          68.1201   91.9765   15.9987 C.3     1  UNL1        0.0554
      9 C          67.5313   92.0981   14.6245 C.ar    1  UNL1        0.0986
     10 N          68.2556   92.5524   13.3920 N.ar    1  UNL1       -0.1726
     11 N          67.2867   92.5220   12.2472 N.ar    1  UNL1       -0.2558
     12 C          65.9636   92.0488   12.7723 C.ar    1  UNL1        0.0756
     13 C          64.7096   91.8691   11.9691 C.3     1  UNL1        0.0532
     14 C          66.1148   91.7869   14.2415 C.ar    1  UNL1        0.1501
     15 C          67.5880   92.8985   10.8269 C.3     1  UNL1        0.1048
     16 C          68.3803   92.0838    9.8479 C.3     1  UNL1        0.0243
     17 C          68.4319   92.8376    8.5521 C.3     1  UNL1        0.0021
     18 C          67.6714   94.1183    8.7303 C.3     1  UNL1        0.0021
     19 C          67.1499   94.1560   10.1362 C.3     1  UNL1        0.0243
     20 C          62.4627   89.4864   14.4325 C.3     1  UNL1        0.1046
     21 N          63.2238   89.1567   13.1827 N.pl3   1  UNL1       -0.3315
     22 H          63.9757   89.7257   12.8997 H       1  UNL1        0.1469
     23 C          62.8393   87.9600   12.3641 C.ar    1  UNL1        0.0477
     24 C          62.0814   88.1402   11.0823 C.ar    1  UNL1        0.0144
     25 C          61.6970   86.9435   10.2638 C.ar    1  UNL1        0.0028
     26 C          62.0704   85.5666   10.7271 C.ar    1  UNL1        0.0193
     27 C          62.8283   85.3864   12.0089 C.ar    1  UNL1        0.0855
     28 C          63.2127   86.5831   12.8274 C.ar    1  UNL1        0.0517
     29 C          63.9528   86.0979   14.0387 C.ar    1  UNL1        0.1232
     30 N          64.0257   84.6013   13.9686 N.ar    1  UNL1       -0.1634
     31 N          63.3307   84.1616   12.7142 N.ar    1  UNL1       -0.2281
     32 C          63.1669   82.7456   12.2470 C.ar    1  UNL1        0.1021
     33 C          63.5315   82.3729   10.8406 C.ar    1  UNL1        0.0247
     34 C          63.3676   80.9569   10.3734 C.ar    1  UNL1        0.0512
     35 C          62.8392   79.9137   11.3127 C.ar    1  UNL1        0.2224
     36 F          62.6753   78.4977   10.8456 F       1  UNL1       -0.1832
     37 N          62.4746   80.2864   12.7191 N.ar    1  UNL1       -0.2149
     38 C          62.6384   81.7023   13.1863 C.ar    1  UNL1        0.1203
@<TRIPOS>BOND
     1     8     9    1
     2     9    10   ar
     3    10    11   ar
     4    11    15    1
     5    15    16    1
     6    16    17    1
     7    17    18    1
     8    18    19    1
     9    11    12   ar
    10    12    13    1
    11    12    14   ar
    12    14     5    1
    13     5     6    2
    14     5     7    2
    15     5     3    1
    16     3     1    1
    17     1     2    1
    18     1    20    1
    19    20    21    1
    20    21    23    1
    21    23    24   ar
    22    24    25   ar
    23    25    26   ar
    24    26    27   ar
    25    27    28   ar
    26    28    29   ar
    27    29    30   ar
    28    30    31   ar
    29    31    32    1
    30    32    33   ar
    31    33    34   ar
    32    34    35   ar
    33    35    36    1
    34    35    37   ar
    35    37    38   ar
    36    14     9   ar
    37    28    23   ar
    38    38    32   ar
    39    19    15    1
    40    31    27   ar
    41     3     4    1
    42    21    22    1
@<TRIPOS>MOLECULE
*****
 38 42 0 0 0
SMALL
GASTEIGER

@<TRIPOS>ATOM
      1 C          63.4972   88.6774   15.4744 C.3     1  UNL1        0.0950
      2 C          63.1551   88.6973   16.9348 C.3     1  UNL1        0.0206
      3 N          63.0522   89.7999   14.5845 N.3     1  UNL1       -0.1790
      4 H          62.5550   89.3756   13.8014 H       1  UNL1        0.1488
      5 S          64.0646   90.7380   13.9973 S.O2    1  UNL1        0.0625
      6 O          63.8357   91.6942   15.1301 O.2     1  UNL1       -0.1529
      7 O          64.2936   89.7819   12.8646 O.2     1  UNL1       -0.1529
      8 C          66.6585   91.9738   15.5446 C.3     1  UNL1        0.0554
      9 C          66.2694   92.2441   14.1214 C.ar    1  UNL1        0.0986
     10 N          67.0043   93.1300   13.1595 N.ar    1  UNL1       -0.1726
     11 N          66.2662   93.1094   11.8538 N.ar    1  UNL1       -0.2558
     12 C          65.0752   92.2109   12.0087 C.ar    1  UNL1        0.0756
     13 C          64.0603   91.9014   10.9484 C.3     1  UNL1        0.0532
     14 C          65.0771   91.6761   13.4102 C.ar    1  UNL1        0.1501
     15 C          66.6515   93.8563   10.6113 C.3     1  UNL1        0.1048
     16 C          66.1602   95.2161   10.2120 C.3     1  UNL1        0.0243
     17 C          66.8009   95.5746    8.9039 C.3     1  UNL1        0.0021
     18 C          67.6881   94.4364    8.4948 C.3     1  UNL1        0.0021
     19 C          67.5958   93.3744    9.5501 C.3     1  UNL1        0.0243
     20 C          64.2842   87.5349   14.9040 C.3     1  UNL1        0.1046
     21 N          63.7336   86.1409   14.9640 N.pl3   1  UNL1       -0.3315
     22 H          63.4303   85.7680   15.8232 H       1  UNL1        0.1469
     23 C          63.6452   85.3150   13.7149 C.ar    1  UNL1        0.0477
     24 C          64.1522   83.9033   13.7118 C.ar    1  UNL1        0.0144
     25 C          64.0638   83.0775   12.4628 C.ar    1  UNL1        0.0028
     26 C          63.4685   83.6634   11.2168 C.ar    1  UNL1        0.0193
     27 C          62.9615   85.0751   11.2200 C.ar    1  UNL1        0.0855
     28 C          63.0499   85.9009   12.4690 C.ar    1  UNL1        0.0517
     29 C          62.4719   87.2530   12.1726 C.ar    1  UNL1        0.1232
     30 N          62.0263   87.2628   10.7404 N.ar    1  UNL1       -0.1634
     31 N          62.3289   85.9167   10.1516 N.ar    1  UNL1       -0.2281
     32 C          62.0482   85.4877    8.7420 C.ar    1  UNL1        0.1021
     33 C          63.1379   84.8744    7.9135 C.ar    1  UNL1        0.0247
     34 C          62.8572   84.4454    6.5039 C.ar    1  UNL1        0.0512
     35 C          61.4867   84.6296    5.9226 C.ar    1  UNL1        0.2224
     36 F          61.2060   84.2005    4.5130 F       1  UNL1       -0.1832
     37 N          60.3970   85.2429    6.7511 N.ar    1  UNL1       -0.2149
     38 C          60.6777   85.6719    8.1607 C.ar    1  UNL1        0.1203
@<TRIPOS>BOND
     1     8     9    1
     2     9    10   ar
     3    10    11   ar
     4    11    15    1
     5    15    16    1
     6    16    17    1
     7    17    18    1
     8    18    19    1
     9    11    12   ar
    10    12    13    1
    11    12    14   ar
    12    14     5    1
    13     5     6    2
    14     5     7    2
    15     5     3    1
    16     3     1    1
    17     1     2    1
    18     1    20    1
    19    20    21    1
    20    21    23    1
    21    23    24   ar
    22    24    25   ar
    23    25    26   ar
    24    26    27   ar
    25    27    28   ar
    26    28    29   ar
    27    29    30   ar
    28    30    31   ar
    29    31    32    1
    30    32    33   ar
    31    33    34   ar
    32    34    35   ar
    33    35    36    1
    34    35    37   ar
    35    37    38   ar
    36    14     9   ar
    37    28    23   ar
    38    38    32   ar
    39    19    15    1
    40    31    27   ar
    41     3     4    1
    42    21    22    1
@<TRIPOS>MOLECULE
*****
 38 42 0 0 0
SMALL
GASTEIGER

@<TRIPOS>ATOM
      1 C          63.2550   89.4653   15.8251 C.3     1  UNL1        0.0950
      2 C          63.0185   88.5036   16.9517 C.3     1  UNL1        0.0206
      3 N          63.9263   90.7803   16.0900 N.3     1  UNL1       -0.1790
      4 H          63.1929   91.4892   16.0971 H       1  UNL1        0.1488
      5 S          64.9979   91.2753   15.1644 S.O2    1  UNL1        0.0625
      6 O          64.8448   92.6576   15.7263 O.2     1  UNL1       -0.1529
      7 O          65.1510   89.8930   14.6025 O.2     1  UNL1       -0.1529
      8 C          68.0805   91.9579   15.9896 C.3     1  UNL1        0.0554
      9 C          67.4863   92.0840   14.6181 C.ar    1  UNL1        0.0986
     10 N          68.2048   92.5460   13.3851 N.ar    1  UNL1       -0.1726
     11 N          67.2320   92.5178   12.2437 N.ar    1  UNL1       -0.2558
     12 C          65.9122   92.0383   12.7713 C.ar    1  UNL1        0.0756
     13 C          64.6558   91.8585   11.9718 C.3     1  UNL1        0.0532
     14 C          66.0694   91.7702   14.2388 C.ar    1  UNL1        0.1501
     15 C          67.5270   92.9016   10.8240 C.3     1  UNL1        0.1048
     16 C          68.3609   92.1182    9.8540 C.3     1  UNL1        0.0243
     17 C          68.3893   92.8686    8.5555 C.3     1  UNL1        0.0021
     18 C          67.5729   94.1159    8.7230 C.3     1  UNL1        0.0021
     19 C          67.0400   94.1363   10.1251 C.3     1  UNL1        0.0243
     20 C          62.8203   89.1120   14.4337 C.3     1  UNL1        0.1046
     21 N          62.0120   90.0871   13.6301 N.pl3   1  UNL1       -0.3315
     22 H          61.7651   90.9582   14.0166 H       1  UNL1        0.1469
     23 C          61.5798   89.7349   12.2375 C.ar    1  UNL1        0.0477
     24 C          60.7576   90.7033   11.4399 C.ar    1  UNL1        0.0144
     25 C          60.3255   90.3511   10.0474 C.ar    1  UNL1        0.0028
     26 C          60.7155   89.0305    9.4524 C.ar    1  UNL1        0.0193
     27 C          61.5376   88.0621   10.2501 C.ar    1  UNL1        0.0855
     28 C          61.9698   88.4143   11.6426 C.ar    1  UNL1        0.0517
     29 C          62.7690   87.2662   12.1843 C.ar    1  UNL1        0.1232
     30 N          62.8307   86.2045   11.1265 N.ar    1  UNL1       -0.1634
     31 N          62.0697   86.6964    9.9311 N.ar    1  UNL1       -0.2281
     32 C          61.8750   85.9531    8.6429 C.ar    1  UNL1        0.1021
     33 C          63.0313   85.2415    8.0053 C.ar    1  UNL1        0.0247
     34 C          62.8365   84.4982    6.7171 C.ar    1  UNL1        0.0512
     35 C          61.4854   84.4664    6.0664 C.ar    1  UNL1        0.2224
     36 F          61.2906   83.7231    4.7782 F       1  UNL1       -0.1832
     37 N          60.3291   85.1779    6.7040 N.ar    1  UNL1       -0.2149
     38 C          60.5238   85.9212    7.9922 C.ar    1  UNL1        0.1203
@<TRIPOS>BOND
     1     8     9    1
     2     9    10   ar
     3    10    11   ar
     4    11    15    1
     5    15    16    1
     6    16    17    1
     7    17    18    1
     8    18    19    1
     9    11    12   ar
    10    12    13    1
    11    12    14   ar
    12    14     5    1
    13     5     6    2
    14     5     7    2
    15     5     3    1
    16     3     1    1
    17     1     2    1
    18     1    20    1
    19    20    21    1
    20    21    23    1
    21    23    24   ar
    22    24    25   ar
    23    25    26   ar
    24    26    27   ar
    25    27    28   ar
    26    28    29   ar
    27    29    30   ar
    28    30    31   ar
    29    31    32    1
    30    32    33   ar
    31    33    34   ar
    32    34    35   ar
    33    35    36    1
    34    35    37   ar
    35    37    38   ar
    36    14     9   ar
    37    28    23   ar
    38    38    32   ar
    39    19    15    1
    40    31    27   ar
    41     3     4    1
    42    21    22    1
@<TRIPOS>MOLECULE
*****
 38 42 0 0 0
SMALL
GASTEIGER

@<TRIPOS>ATOM
      1 C          60.1594   89.0768    9.9401 C.3     1  UNL1        0.0950
      2 C          59.2579   88.5824   11.0323 C.3     1  UNL1        0.0206
      3 N          60.6285   88.1349    8.8709 N.3     1  UNL1       -0.1790
      4 H          59.7984   87.8288    8.3633 H       1  UNL1        0.1488
      5 S          61.3896   86.8971    9.2430 S.O2    1  UNL1        0.0625
      6 O          62.5622   87.7400    9.6485 O.2     1  UNL1       -0.1529
      7 O          60.2170   86.0542    8.8375 O.2     1  UNL1       -0.1529
      8 C          62.9674   84.9224    7.1789 C.3     1  UNL1        0.0554
      9 C          62.8759   84.7517    8.6663 C.ar    1  UNL1        0.0986
     10 N          63.4937   83.6432    9.4661 N.ar    1  UNL1       -0.1726
     11 N          63.1502   83.8657   10.9092 N.ar    1  UNL1       -0.2558
     12 C          62.3202   85.1118   11.0013 C.ar    1  UNL1        0.0756
     13 C          61.7584   85.7060   12.2588 C.3     1  UNL1        0.0532
     14 C          62.1507   85.6593    9.6151 C.ar    1  UNL1        0.1501
     15 C          63.5641   82.9952   12.0585 C.3     1  UNL1        0.1048
     16 C          63.2039   81.5511   12.2449 C.3     1  UNL1        0.0243
     17 C          63.8281   81.0792   13.5247 C.3     1  UNL1        0.0021
     18 C          64.5740   82.2318   14.1292 C.3     1  UNL1        0.0021
     19 C          64.4108   83.4159   13.2230 C.3     1  UNL1        0.0243
     20 C          60.5918   90.5129    9.9170 C.3     1  UNL1        0.1046
     21 N          62.0517   90.8570    9.9366 N.pl3   1  UNL1       -0.3315
     22 H          62.5073   91.1176    9.1037 H       1  UNL1        0.1469
     23 C          62.8174   90.8040   11.2255 C.ar    1  UNL1        0.0477
     24 C          62.3253   89.9494   12.3556 C.ar    1  UNL1        0.0144
     25 C          63.0910   89.8964   13.6443 C.ar    1  UNL1        0.0028
     26 C          64.3488   90.6980   13.8029 C.ar    1  UNL1        0.0193
     27 C          64.8410   91.5527   12.6727 C.ar    1  UNL1        0.0855
     28 C          64.0753   91.6056   11.3840 C.ar    1  UNL1        0.0517
     29 C          64.7996   92.5315   10.4521 C.ar    1  UNL1        0.1232
     30 N          66.0129   93.0507   11.1650 N.ar    1  UNL1       -0.1634
     31 N          66.0385   92.4458   12.5374 N.ar    1  UNL1       -0.2281
     32 C          67.0789   92.6909   13.5897 C.ar    1  UNL1        0.1021
     33 C          66.7113   93.4064   14.8557 C.ar    1  UNL1        0.0247
     34 C          67.7517   93.6515   15.9080 C.ar    1  UNL1        0.0512
     35 C          69.1599   93.1810   15.6943 C.ar    1  UNL1        0.2224
     36 F          70.2004   93.4261   16.7466 F       1  UNL1       -0.1832
     37 N          69.5276   92.4655   14.4283 N.ar    1  UNL1       -0.2149
     38 C          68.4872   92.2204   13.3760 C.ar    1  UNL1        0.1203
@<TRIPOS>BOND
     1     8     9    1
     2     9    10   ar
     3    10    11   ar
     4    11    15    1
     5    15    16    1
     6    16    17    1
     7    17    18    1
     8    18    19    1
     9    11    12   ar
    10    12    13    1
    11    12    14   ar
    12    14     5    1
    13     5     6    2
    14     5     7    2
    15     5     3    1
    16     3     1    1
    17     1     2    1
    18     1    20    1
    19    20    21    1
    20    21    23    1
    21    23    24   ar
    22    24    25   ar
    23    25    26   ar
    24    26    27   ar
    25    27    28   ar
    26    28    29   ar
    27    29    30   ar
    28    30    31   ar
    29    31    32    1
    30    32    33   ar
    31    33    34   ar
    32    34    35   ar
    33    35    36    1
    34    35    37   ar
    35    37    38   ar
    36    14     9   ar
    37    28    23   ar
    38    38    32   ar
    39    19    15    1
    40    31    27   ar
    41     3     4    1
    42    21    22    1
@<TRIPOS>MOLECULE
*****
 38 42 0 0 0
SMALL
GASTEIGER

@<TRIPOS>ATOM
      1 C          60.2729   89.0336    9.8766 C.3     1  UNL1        0.0950
      2 C          59.6774   90.3609    9.5109 C.3     1  UNL1        0.0206
      3 N          60.8308   88.1417    8.8072 N.3     1  UNL1       -0.1790
      4 H          60.0502   87.8803    8.2049 H       1  UNL1        0.1488
      5 S          61.5332   86.8704    9.1819 S.O2    1  UNL1        0.0625
      6 O          62.7740   87.6502    9.5016 O.2     1  UNL1       -0.1529
      7 O          60.2923   86.0906    8.8622 O.2     1  UNL1       -0.1529
      8 C          63.0243   84.8242    7.1231 C.3     1  UNL1        0.0554
      9 C          62.9209   84.6586    8.6103 C.ar    1  UNL1        0.0986
     10 N          63.4848   83.5233    9.4122 N.ar    1  UNL1       -0.1726
     11 N          63.1480   83.7622   10.8543 N.ar    1  UNL1       -0.2558
     12 C          62.3758   85.0451   10.9435 C.ar    1  UNL1        0.0756
     13 C          61.8384   85.6651   12.1992 C.3     1  UNL1        0.0532
     14 C          62.2355   85.5991    9.5567 C.ar    1  UNL1        0.1501
     15 C          63.5182   82.8741   12.0050 C.3     1  UNL1        0.1048
     16 C          63.0442   81.4675   12.2212 C.3     1  UNL1        0.0243
     17 C          63.6605   80.9608   13.4914 C.3     1  UNL1        0.0021
     18 C          64.5154   82.0542   14.0603 C.3     1  UNL1        0.0021
     19 C          64.4275   83.2368   13.1416 C.3     1  UNL1        0.0243
     20 C          60.3106   88.5982   11.3114 C.3     1  UNL1        0.1046
     21 N          60.8074   89.5398   12.3681 N.pl3   1  UNL1       -0.3315
     22 H          60.2918   89.6655   13.1974 H       1  UNL1        0.1469
     23 C          62.0898   90.2900   12.1613 C.ar    1  UNL1        0.0477
     24 C          62.4247   90.8443   10.8084 C.ar    1  UNL1        0.0144
     25 C          63.7070   91.5945   10.6017 C.ar    1  UNL1        0.0028
     26 C          64.6546   91.7903   11.7479 C.ar    1  UNL1        0.0193
     27 C          64.3197   91.2359   13.1009 C.ar    1  UNL1        0.0855
     28 C          63.0374   90.4858   13.3076 C.ar    1  UNL1        0.0517
     29 C          62.9774   90.0570   14.7438 C.ar    1  UNL1        0.1232
     30 N          64.2228   90.5422   15.4247 N.ar    1  UNL1       -0.1634
     31 N          65.0524   91.2708   14.4093 N.ar    1  UNL1       -0.2281
     32 C          66.3813   91.9203   14.6585 C.ar    1  UNL1        0.1021
     33 C          66.5753   92.7935   15.8625 C.ar    1  UNL1        0.0247
     34 C          67.9043   93.4430   16.1118 C.ar    1  UNL1        0.0512
     35 C          69.0393   93.2192   15.1569 C.ar    1  UNL1        0.2224
     36 F          70.3682   93.8686   15.4062 F       1  UNL1       -0.1832
     37 N          68.8452   92.3460   13.9529 N.ar    1  UNL1       -0.2149
     38 C          67.5163   91.6965   13.7037 C.ar    1  UNL1        0.1203
@<TRIPOS>BOND
     1     8     9    1
     2     9    10   ar
     3    10    11   ar
     4    11    15    1
     5    15    16    1
     6    16    17    1
     7    17    18    1
     8    18    19    1
     9    11    12   ar
    10    12    13    1
    11    12    14   ar
    12    14     5    1
    13     5     6    2
    14     5     7    2
    15     5     3    1
    16     3     1    1
    17     1     2    1
    18     1    20    1
    19    20    21    1
    20    21    23    1
    21    23    24   ar
    22    24    25   ar
    23    25    26   ar
    24    26    27   ar
    25    27    28   ar
    26    28    29   ar
    27    29    30   ar
    28    30    31   ar
    29    31    32    1
    30    32    33   ar
    31    33    34   ar
    32    34    35   ar
    33    35    36    1
    34    35    37   ar
    35    37    38   ar
    36    14     9   ar
    37    28    23   ar
    38    38    32   ar
    39    19    15    1
    40    31    27   ar
    41     3     4    1
    42    21    22    1
@<TRIPOS>MOLECULE
*****
 38 42 0 0 0
SMALL
GASTEIGER

@<TRIPOS>ATOM
      1 C          63.4911   89.3654   15.8405 C.3     1  UNL1        0.0950
      2 C          63.1422   88.8692   17.2124 C.3     1  UNL1        0.0206
      3 N          64.4134   90.5373   15.6789 N.3     1  UNL1       -0.1790
      4 H          64.0659   91.2726   16.2945 H       1  UNL1        0.1488
      5 S          64.6063   91.1591   14.3276 S.O2    1  UNL1        0.0625
      6 O          65.9642   90.5292   14.2315 O.2     1  UNL1       -0.1529
      7 O          63.2484   91.7890   14.4236 O.2     1  UNL1       -0.1529
      8 C          63.1595   90.2171   11.5584 C.3     1  UNL1        0.0554
      9 C          64.1342   91.3479   11.7034 C.ar    1  UNL1        0.0986
     10 N          64.6150   92.2443   10.6010 N.ar    1  UNL1       -0.1726
     11 N          65.5772   93.2314   11.1926 N.ar    1  UNL1       -0.2558
     12 C          65.6910   92.9450   12.6606 C.ar    1  UNL1        0.0756
     13 C          66.5465   93.6916   13.6407 C.3     1  UNL1        0.0532
     14 C          64.7992   91.7810   12.9763 C.ar    1  UNL1        0.1501
     15 C          66.2988   94.3147   10.4470 C.3     1  UNL1        0.1048
     16 C          66.2318   95.7837   10.7428 C.3     1  UNL1        0.0243
     17 C          67.1057   96.4960    9.7534 C.3     1  UNL1        0.0021
     18 C          67.7128   95.4672    8.8461 C.3     1  UNL1        0.0021
     19 C          67.2141   94.1190    9.2748 C.3     1  UNL1        0.0243
     20 C          62.9177   88.6897   14.6302 C.3     1  UNL1        0.1046
     21 N          63.8241   87.9862   13.6641 N.pl3   1  UNL1       -0.3315
     22 H          64.2708   88.4943   12.9489 H       1  UNL1        0.1469
     23 C          64.0497   86.5083   13.7875 C.ar    1  UNL1        0.0477
     24 C          64.8939   85.9692   14.9041 C.ar    1  UNL1        0.0144
     25 C          65.1196   84.4915   15.0275 C.ar    1  UNL1        0.0028
     26 C          64.5010   83.5528   14.0344 C.ar    1  UNL1        0.0193
     27 C          63.6568   84.0919   12.9179 C.ar    1  UNL1        0.0855
     28 C          63.4311   85.5696   12.7944 C.ar    1  UNL1        0.0517
     29 C          62.5582   85.8070   11.5979 C.ar    1  UNL1        0.1232
     30 N          62.2443   84.4758   10.9818 N.ar    1  UNL1       -0.1634
     31 N          62.9233   83.4159   11.7976 N.ar    1  UNL1       -0.2281
     32 C          62.8769   81.9391   11.5387 C.ar    1  UNL1        0.1021
     33 C          63.1147   81.4125   10.1545 C.ar    1  UNL1        0.0247
     34 C          63.0683   79.9358    9.8955 C.ar    1  UNL1        0.0512
     35 C          62.7841   78.9856   11.0208 C.ar    1  UNL1        0.2224
     36 F          62.7377   77.5088   10.7618 F       1  UNL1       -0.1832
     37 N          62.5463   79.5122   12.4050 N.ar    1  UNL1       -0.2149
     38 C          62.5927   80.9889   12.6640 C.ar    1  UNL1        0.1203
@<TRIPOS>BOND
     1     8     9    1
     2     9    10   ar
     3    10    11   ar
     4    11    15    1
     5    15    16    1
     6    16    17    1
     7    17    18    1
     8    18    19    1
     9    11    12   ar
    10    12    13    1
    11    12    14   ar
    12    14     5    1
    13     5     6    2
    14     5     7    2
    15     5     3    1
    16     3     1    1
    17     1     2    1
    18     1    20    1
    19    20    21    1
    20    21    23    1
    21    23    24   ar
    22    24    25   ar
    23    25    26   ar
    24    26    27   ar
    25    27    28   ar
    26    28    29   ar
    27    29    30   ar
    28    30    31   ar
    29    31    32    1
    30    32    33   ar
    31    33    34   ar
    32    34    35   ar
    33    35    36    1
    34    35    37   ar
    35    37    38   ar
    36    14     9   ar
    37    28    23   ar
    38    38    32   ar
    39    19    15    1
    40    31    27   ar
    41     3     4    1
    42    21    22    1
@<TRIPOS>MOLECULE
*****
 38 42 0 0 0
SMALL
GASTEIGER

@<TRIPOS>ATOM
      1 C          59.6035   89.1392    7.6879 C.3     1  UNL1        0.0950
      2 C          59.1847   87.6992    7.7197 C.3     1  UNL1        0.0206
      3 N          60.1338   89.7936    8.9291 N.3     1  UNL1       -0.1790
      4 H          60.7185   90.5720    8.6247 H       1  UNL1        0.1488
      5 S          60.9464   88.9985    9.9075 S.O2    1  UNL1        0.0625
      6 O          59.7631   88.9192   10.8259 O.2     1  UNL1       -0.1529
      7 O          62.1298   89.0778    8.9892 O.2     1  UNL1       -0.1529
      8 C          62.8261   90.2194   12.2793 C.3     1  UNL1        0.0554
      9 C          62.6230   88.7645   11.9761 C.ar    1  UNL1        0.0986
     10 N          63.2483   87.6154   12.7099 N.ar    1  UNL1       -0.1726
     11 N          62.7708   86.3439   12.0732 N.ar    1  UNL1       -0.2558
     12 C          61.8504   86.7073   10.9459 C.ar    1  UNL1        0.0756
     13 C          61.1451   85.7438   10.0381 C.3     1  UNL1        0.0532
     14 C          61.7590   88.2033   10.8859 C.ar    1  UNL1        0.1501
     15 C          63.1475   84.9532   12.4905 C.3     1  UNL1        0.1048
     16 C          62.8426   84.3169   13.8142 C.3     1  UNL1        0.0243
     17 C          63.4020   82.9252   13.7992 C.3     1  UNL1        0.0021
     18 C          64.0526   82.7014   12.4662 C.3     1  UNL1        0.0021
     19 C          63.8953   83.9548   11.6574 C.3     1  UNL1        0.0243
     20 C          59.4918   89.9248    6.4150 C.3     1  UNL1        0.1046
     21 N          60.7290   90.3005    5.6546 N.pl3   1  UNL1       -0.3315
     22 H          61.5876   89.8680    5.8668 H       1  UNL1        0.1469
     23 C          60.6580   91.3351    4.5708 C.ar    1  UNL1        0.0477
     24 C          59.4163   92.1592    4.4008 C.ar    1  UNL1        0.0144
     25 C          59.3453   93.1938    3.3170 C.ar    1  UNL1        0.0028
     26 C          60.5161   93.4043    2.4032 C.ar    1  UNL1        0.0193
     27 C          61.7578   92.5802    2.5732 C.ar    1  UNL1        0.0855
     28 C          61.8288   91.5456    3.6570 C.ar    1  UNL1        0.0517
     29 C          63.1754   90.8889    3.5835 C.ar    1  UNL1        0.1232
     30 N          63.9367   91.5177    2.4543 N.ar    1  UNL1       -0.1634
     31 N          63.0606   92.5629    1.8299 N.ar    1  UNL1       -0.2281
     32 C          63.4235   93.4374    0.6665 C.ar    1  UNL1        0.1021
     33 C          62.5149   93.5167   -0.5244 C.ar    1  UNL1        0.0247
     34 C          62.8778   94.3912   -1.6878 C.ar    1  UNL1        0.0512
     35 C          64.1493   95.1864   -1.6604 C.ar    1  UNL1        0.2224
     36 F          64.5122   96.0609   -2.8238 F       1  UNL1       -0.1832
     37 N          65.0579   95.1072   -0.4695 N.ar    1  UNL1       -0.2149
     38 C          64.6950   94.2327    0.6939 C.ar    1  UNL1        0.1203
@<TRIPOS>BOND
     1     8     9    1
     2     9    10   ar
     3    10    11   ar
     4    11    15    1
     5    15    16    1
     6    16    17    1
     7    17    18    1
     8    18    19    1
     9    11    12   ar
    10    12    13    1
    11    12    14   ar
    12    14     5    1
    13     5     6    2
    14     5     7    2
    15     5     3    1
    16     3     1    1
    17     1     2    1
    18     1    20    1
    19    20    21    1
    20    21    23    1
    21    23    24   ar
    22    24    25   ar
    23    25    26   ar
    24    26    27   ar
    25    27    28   ar
    26    28    29   ar
    27    29    30   ar
    28    30    31   ar
    29    31    32    1
    30    32    33   ar
    31    33    34   ar
    32    34    35   ar
    33    35    36    1
    34    35    37   ar
    35    37    38   ar
    36    14     9   ar
    37    28    23   ar
    38    38    32   ar
    39    19    15    1
    40    31    27   ar
    41     3     4    1
    42    21    22    1
