@<TRIPOS>MOLECULE
*****
 29 31 0 0 0
SMALL
GASTEIGER

@<TRIPOS>ATOM
      1 C          63.6211   90.7634   11.7980 C.ar    1  UNL1        0.1534
      2 C          62.6287   90.8111   10.6744 C.ar    1  UNL1        0.0351
      3 C          61.7289   89.6386   10.4182 C.ar    1  UNL1        0.0722
      4 CL         60.7364   89.6863    9.2944 Cl      1  UNL1       -0.0809
      5 C          61.8216   88.4184   11.2857 C.ar    1  UNL1        0.0577
      6 C          62.8140   88.3707   12.4093 C.ar    1  UNL1        0.0462
      7 C          63.7138   89.5432   12.6655 C.ar    1  UNL1        0.1602
      8 F          64.7063   89.4955   13.7893 F       1  UNL1       -0.2027
      9 O          64.9626   91.9101   10.6211 O.2     1  UNL1       -0.1498
     10 S          64.5209   91.9359   12.0543 S.O2    1  UNL1        0.0772
     11 O          64.0793   91.9616   13.4875 O.2     1  UNL1       -0.1498
     12 N          65.4207   93.1083   12.3105 N.pl3   1  UNL1       -0.1936
     13 H          65.3336   93.9239   11.7660 H       1  UNL1        0.1758
     14 C          66.4533   93.0382   13.3963 C.ar    1  UNL1        0.1786
     15 N          66.5896   93.9915   14.5463 N.ar    1  UNL1       -0.2214
     16 C          67.7513   93.5449   15.3835 C.ar    1  UNL1        0.1079
     17 C          68.3331   92.3155   14.7509 C.ar    1  UNL1        0.0588
     18 S          67.5308   92.0023   13.5227 S.2     1  UNL1       -0.0497
     19 N          60.9217   87.2459   11.0294 N.pl3   1  UNL1       -0.3319
     20 H          60.0379   87.2002   11.4607 H       1  UNL1        0.1468
     21 C          61.3685   86.1432   10.1161 C.3     1  UNL1        0.0870
     22 C          62.3480   85.1166   10.6028 C.3     1  UNL1        0.0197
     23 C          62.4584   84.8213   12.0693 C.3     1  UNL1        0.0042
     24 C          63.4378   83.7949   12.5560 C.3     1  UNL1        0.0293
     25 C          64.3070   83.0637   11.5762 C.3     1  UNL1        0.1105
     26 O          65.2865   82.0372   12.0630 O.3     1  UNL1       -0.3845
     27 C          64.1967   83.3590   10.1097 C.3     1  UNL1        0.0293
     28 C          63.2172   84.3855    9.6231 C.3     1  UNL1        0.0042
     29 H          65.2305   81.9693   13.0290 H       1  UNL1        0.2103
@<TRIPOS>BOND
     1     9    10    2
     2    10    11    2
     3    10    12    1
     4    12    14    1
     5    14    15   ar
     6    15    16   ar
     7    16    17   ar
     8    17    18   ar
     9    10     1    1
    10     1     2   ar
    11     2     3   ar
    12     3     4    1
    13     3     5   ar
    14     5    19    1
    15    19    21    1
    16    22    21    1
    17    22    23    1
    18    23    24    1
    19    24    25    1
    20    25    26    1
    21    25    27    1
    22    27    28    1
    23     5     6   ar
    24     6     7   ar
    25     7     8    1
    26    18    14   ar
    27     7     1   ar
    28    28    22    1
    29    12    13    1
    30    19    20    1
    31    26    29    1
@<TRIPOS>MOLECULE
*****
 29 31 0 0 0
SMALL
GASTEIGER

@<TRIPOS>ATOM
      1 C          63.7688   86.7538   15.4289 C.ar    1  UNL1        0.1534
      2 C          64.0100   87.5330   14.1701 C.ar    1  UNL1        0.0351
      3 C          63.8817   89.0274   14.1769 C.ar    1  UNL1        0.0722
      4 CL         64.1229   89.8067   12.9180 Cl      1  UNL1       -0.0809
      5 C          63.5121   89.7427   15.4425 C.ar    1  UNL1        0.0577
      6 C          63.2709   88.9636   16.7013 C.ar    1  UNL1        0.0462
      7 C          63.3992   87.4691   16.6945 C.ar    1  UNL1        0.1602
      8 F          63.1580   86.6899   17.9534 F       1  UNL1       -0.2027
      9 O          65.3402   85.3850   15.0329 O.2     1  UNL1       -0.1498
     10 S          63.8971   85.2593   15.4221 S.O2    1  UNL1        0.0772
     11 O          62.4540   85.1336   15.8114 O.2     1  UNL1       -0.1498
     12 N          64.0254   83.7648   15.4154 N.pl3   1  UNL1       -0.1936
     13 H          64.5311   83.3110   16.1278 H       1  UNL1        0.1758
     14 C          63.3834   82.9618   14.3231 C.ar    1  UNL1        0.1786
     15 N          62.6759   81.6501   14.4925 N.ar    1  UNL1       -0.2214
     16 C          62.1913   81.2072   13.1438 C.ar    1  UNL1        0.1079
     17 C          62.5994   82.2453   12.1408 C.ar    1  UNL1        0.0588
     18 S          63.3362   83.3297   12.8697 S.2     1  UNL1       -0.0497
     19 N          63.3838   91.2373   15.4492 N.pl3   1  UNL1       -0.3319
     20 H          62.6086   91.6667   15.0205 H       1  UNL1        0.1468
     21 C          64.4367   92.0775   16.1091 C.3     1  UNL1        0.0870
     22 C          65.8231   92.1273   15.5385 C.3     1  UNL1        0.0197
     23 C          66.9871   92.4605   16.4240 C.3     1  UNL1        0.0042
     24 C          68.3733   92.5103   15.8533 C.3     1  UNL1        0.0293
     25 C          68.5957   92.2270   14.3972 C.3     1  UNL1        0.1105
     26 O          69.9821   92.2768   13.8266 O.3     1  UNL1       -0.3845
     27 C          67.4317   91.8938   13.5117 C.3     1  UNL1        0.0293
     28 C          66.0454   91.8439   14.0824 C.3     1  UNL1        0.0042
     29 H          70.6123   92.5046   14.5279 H       1  UNL1        0.2103
@<TRIPOS>BOND
     1     9    10    2
     2    10    11    2
     3    10    12    1
     4    12    14    1
     5    14    15   ar
     6    15    16   ar
     7    16    17   ar
     8    17    18   ar
     9    10     1    1
    10     1     2   ar
    11     2     3   ar
    12     3     4    1
    13     3     5   ar
    14     5    19    1
    15    19    21    1
    16    22    21    1
    17    22    23    1
    18    23    24    1
    19    24    25    1
    20    25    26    1
    21    25    27    1
    22    27    28    1
    23     5     6   ar
    24     6     7   ar
    25     7     8    1
    26    18    14   ar
    27     7     1   ar
    28    28    22    1
    29    12    13    1
    30    19    20    1
    31    26    29    1
@<TRIPOS>MOLECULE
*****
 29 31 0 0 0
SMALL
GASTEIGER

@<TRIPOS>ATOM
      1 C          64.3191   91.2950   11.9338 C.ar    1  UNL1        0.1534
      2 C          63.3381   91.2628   10.7995 C.ar    1  UNL1        0.0351
      3 C          62.3373   90.1496   10.7051 C.ar    1  UNL1        0.0722
      4 CL         61.3562   90.1172    9.5707 Cl      1  UNL1       -0.0809
      5 C          62.3173   89.0686   11.7449 C.ar    1  UNL1        0.0577
      6 C          63.2983   89.1009   12.8792 C.ar    1  UNL1        0.0462
      7 C          64.2992   90.2141   12.9736 C.ar    1  UNL1        0.1602
      8 F          65.2802   90.2464   14.1080 F       1  UNL1       -0.2027
      9 O          65.7129   92.1763   10.5995 O.2     1  UNL1       -0.1498
     10 S          65.3200   92.4083   12.0283 S.O2    1  UNL1        0.0772
     11 O          64.9271   92.6403   13.4572 O.2     1  UNL1       -0.1498
     12 N          66.3209   93.5215   12.1228 N.pl3   1  UNL1       -0.1936
     13 H          66.8276   93.6585   12.9557 H       1  UNL1        0.1758
     14 C          66.5499   94.4259   10.9482 C.ar    1  UNL1        0.1786
     15 N          67.6935   94.3427    9.9811 N.ar    1  UNL1       -0.2214
     16 C          67.5259   95.4377    8.9697 C.ar    1  UNL1        0.1079
     17 C          66.2786   96.1976    9.3117 C.ar    1  UNL1        0.0588
     18 S          65.6754   95.5723   10.5345 S.2     1  UNL1       -0.0497
     19 N          61.3164   87.9554   11.6503 N.pl3   1  UNL1       -0.3319
     20 H          60.5404   87.9384   12.2560 H       1  UNL1        0.1468
     21 C          61.4977   86.8681   10.6330 C.3     1  UNL1        0.0870
     22 C          62.3909   85.7011   10.9337 C.3     1  UNL1        0.0197
     23 C          62.9446   84.8721    9.8129 C.3     1  UNL1        0.0042
     24 C          63.8377   83.7052   10.1135 C.3     1  UNL1        0.0293
     25 C          64.1772   83.3672   11.5349 C.3     1  UNL1        0.1105
     26 O          65.0704   82.2001   11.8355 O.3     1  UNL1       -0.3845
     27 C          63.6236   84.1961   12.6557 C.3     1  UNL1        0.0293
     28 C          62.7304   85.3631   12.3551 C.3     1  UNL1        0.0042
     29 H          65.3383   81.7758   11.0055 H       1  UNL1        0.2103
@<TRIPOS>BOND
     1     9    10    2
     2    10    11    2
     3    10    12    1
     4    12    14    1
     5    14    15   ar
     6    15    16   ar
     7    16    17   ar
     8    17    18   ar
     9    10     1    1
    10     1     2   ar
    11     2     3   ar
    12     3     4    1
    13     3     5   ar
    14     5    19    1
    15    19    21    1
    16    22    21    1
    17    22    23    1
    18    23    24    1
    19    24    25    1
    20    25    26    1
    21    25    27    1
    22    27    28    1
    23     5     6   ar
    24     6     7   ar
    25     7     8    1
    26    18    14   ar
    27     7     1   ar
    28    28    22    1
    29    12    13    1
    30    19    20    1
    31    26    29    1
@<TRIPOS>MOLECULE
*****
 29 31 0 0 0
SMALL
GASTEIGER

@<TRIPOS>ATOM
      1 C          64.7640   91.6264   11.9900 C.ar    1  UNL1        0.1534
      2 C          64.8086   90.6154   13.0972 C.ar    1  UNL1        0.0351
      3 C          63.8677   89.4473   13.0844 C.ar    1  UNL1        0.0722
      4 CL         63.9123   88.4362   14.1916 Cl      1  UNL1       -0.0809
      5 C          62.8822   89.2902   11.9645 C.ar    1  UNL1        0.0577
      6 C          62.8376   90.3012   10.8574 C.ar    1  UNL1        0.0462
      7 C          63.7785   91.4693   10.8701 C.ar    1  UNL1        0.1602
      8 F          63.7340   92.4804    9.7629 F       1  UNL1       -0.2027
      9 O          66.1682   92.4364   10.6218 O.2     1  UNL1       -0.1498
     10 S          65.7049   92.7946   12.0027 S.O2    1  UNL1        0.0772
     11 O          65.2416   93.1529   13.3836 O.2     1  UNL1       -0.1498
     12 N          66.6458   93.9627   12.0153 N.pl3   1  UNL1       -0.1936
     13 H          67.2478   94.1016   12.7818 H       1  UNL1        0.1758
     14 C          66.6695   94.9192   10.8600 C.ar    1  UNL1        0.1786
     15 N          67.7392   95.0101    9.8124 N.ar    1  UNL1       -0.2214
     16 C          67.3585   96.0998    8.8545 C.ar    1  UNL1        0.1079
     17 C          66.0535   96.6825    9.3101 C.ar    1  UNL1        0.0588
     18 S          65.6277   95.9528   10.5497 S.2     1  UNL1       -0.0497
     19 N          61.9413   88.1220   11.9519 N.pl3   1  UNL1       -0.3319
     20 H          62.0551   87.3912   12.6016 H       1  UNL1        0.1468
     21 C          60.8270   88.0674   10.9493 C.3     1  UNL1        0.0870
     22 C          60.9422   87.1771    9.7475 C.3     1  UNL1        0.0197
     23 C          62.2316   86.4658    9.4620 C.3     1  UNL1        0.0042
     24 C          62.3468   85.5756    8.2603 C.3     1  UNL1        0.0293
     25 C          61.1727   85.3965    7.3441 C.3     1  UNL1        0.1105
     26 O          61.2880   84.5062    6.1424 O.3     1  UNL1       -0.3845
     27 C          59.8833   86.1078    7.6297 C.3     1  UNL1        0.0293
     28 C          59.7681   86.9981    8.8314 C.3     1  UNL1        0.0042
     29 H          62.1800   84.1270    6.1053 H       1  UNL1        0.2103
@<TRIPOS>BOND
     1     9    10    2
     2    10    11    2
     3    10    12    1
     4    12    14    1
     5    14    15   ar
     6    15    16   ar
     7    16    17   ar
     8    17    18   ar
     9    10     1    1
    10     1     2   ar
    11     2     3   ar
    12     3     4    1
    13     3     5   ar
    14     5    19    1
    15    19    21    1
    16    22    21    1
    17    22    23    1
    18    23    24    1
    19    24    25    1
    20    25    26    1
    21    25    27    1
    22    27    28    1
    23     5     6   ar
    24     6     7   ar
    25     7     8    1
    26    18    14   ar
    27     7     1   ar
    28    28    22    1
    29    12    13    1
    30    19    20    1
    31    26    29    1
@<TRIPOS>MOLECULE
*****
 29 31 0 0 0
SMALL
GASTEIGER

@<TRIPOS>ATOM
      1 C          64.7303   91.6427   11.9626 C.ar    1  UNL1        0.1534
      2 C          64.7520   90.6485   13.0856 C.ar    1  UNL1        0.0351
      3 C          63.7535   89.5296   13.1159 C.ar    1  UNL1        0.0722
      4 CL         63.7751   88.5353   14.2389 Cl      1  UNL1       -0.0809
      5 C          62.7333   89.4049   12.0234 C.ar    1  UNL1        0.0577
      6 C          62.7117   90.3990   10.9004 C.ar    1  UNL1        0.0462
      7 C          63.7102   91.5180   10.8700 C.ar    1  UNL1        0.1602
      8 F          63.6886   92.5122    9.7470 F       1  UNL1       -0.2027
      9 O          65.3313   93.1542   13.3242 O.2     1  UNL1       -0.1498
     10 S          65.7289   92.7617   11.9322 S.O2    1  UNL1        0.0772
     11 O          66.1264   92.3692   10.5401 O.2     1  UNL1       -0.1498
     12 N          66.7273   93.8806   11.9018 N.pl3   1  UNL1       -0.1936
     13 H          67.3695   93.9875   12.6403 H       1  UNL1        0.1758
     14 C          66.7474   94.8368   10.7461 C.ar    1  UNL1        0.1786
     15 N          67.7923   94.8995    9.6717 N.ar    1  UNL1       -0.2214
     16 C          67.4168   95.9995    8.7236 C.ar    1  UNL1        0.1079
     17 C          66.1398   96.6166    9.2120 C.ar    1  UNL1        0.0588
     18 S          65.7261   95.8980   10.4621 S.2     1  UNL1       -0.0497
     19 N          61.7348   88.2859   12.0538 N.pl3   1  UNL1       -0.3319
     20 H          61.2232   88.1049   12.8752 H       1  UNL1        0.1468
     21 C          61.5157   87.4427   10.8327 C.3     1  UNL1        0.0870
     22 C          62.2594   86.1501   10.6705 C.3     1  UNL1        0.0197
     23 C          62.5955   85.3220   11.8752 C.3     1  UNL1        0.0042
     24 C          63.3391   84.0294   11.7129 C.3     1  UNL1        0.0293
     25 C          63.7466   83.5650   10.3461 C.3     1  UNL1        0.1105
     26 O          64.4902   82.2724   10.1839 O.3     1  UNL1       -0.3845
     27 C          63.4105   84.3932    9.1415 C.3     1  UNL1        0.0293
     28 C          62.6669   85.6857    9.3037 C.3     1  UNL1        0.0042
     29 H          64.6254   81.8658   11.0541 H       1  UNL1        0.2103
@<TRIPOS>BOND
     1     9    10    2
     2    10    11    2
     3    10    12    1
     4    12    14    1
     5    14    15   ar
     6    15    16   ar
     7    16    17   ar
     8    17    18   ar
     9    10     1    1
    10     1     2   ar
    11     2     3   ar
    12     3     4    1
    13     3     5   ar
    14     5    19    1
    15    19    21    1
    16    22    21    1
    17    22    23    1
    18    23    24    1
    19    24    25    1
    20    25    26    1
    21    25    27    1
    22    27    28    1
    23     5     6   ar
    24     6     7   ar
    25     7     8    1
    26    18    14   ar
    27     7     1   ar
    28    28    22    1
    29    12    13    1
    30    19    20    1
    31    26    29    1
@<TRIPOS>MOLECULE
*****
 29 31 0 0 0
SMALL
GASTEIGER

@<TRIPOS>ATOM
      1 C          63.3720   85.5216   15.2682 C.ar    1  UNL1        0.1534
      2 C          63.1237   86.3735   16.4775 C.ar    1  UNL1        0.0351
      3 C          63.3917   87.8484   16.4238 C.ar    1  UNL1        0.0722
      4 CL         63.1434   88.7003   17.6332 Cl      1  UNL1       -0.0809
      5 C          63.9081   88.4713   15.1608 C.ar    1  UNL1        0.0577
      6 C          64.1564   87.6195   13.9514 C.ar    1  UNL1        0.0462
      7 C          63.8884   86.1446   14.0051 C.ar    1  UNL1        0.1602
      8 F          64.1367   85.2926   12.7957 F       1  UNL1       -0.2027
      9 O          64.5780   83.7819   15.4047 O.2     1  UNL1       -0.1498
     10 S          63.1040   84.0467   15.3218 S.O2    1  UNL1        0.0772
     11 O          61.6299   84.3115   15.2389 O.2     1  UNL1       -0.1498
     12 N          62.8360   82.5718   15.3754 N.pl3   1  UNL1       -0.1936
     13 H          62.6940   82.1286   16.2430 H       1  UNL1        0.1758
     14 C          62.7844   81.7723   14.1073 C.ar    1  UNL1        0.1786
     15 N          62.6274   80.2838   14.0093 N.ar    1  UNL1       -0.2214
     16 C          62.6267   79.9125   12.5559 C.ar    1  UNL1        0.1079
     17 C          62.7832   81.1716   11.7557 C.ar    1  UNL1        0.0588
     18 S          62.8807   82.3211   12.7146 S.2     1  UNL1       -0.0497
     19 N          64.1761   89.9463   15.1071 N.pl3   1  UNL1       -0.3319
     20 H          64.6644   90.3849   15.8409 H       1  UNL1        0.1468
     21 C          63.7003   90.7529   13.9354 C.3     1  UNL1        0.0870
     22 C          64.6932   91.4353   13.0418 C.3     1  UNL1        0.0197
     23 C          66.0457   91.8096   13.5714 C.3     1  UNL1        0.0042
     24 C          67.0385   92.4919   12.6778 C.3     1  UNL1        0.0293
     25 C          66.6789   92.8000   11.2545 C.3     1  UNL1        0.1105
     26 O          67.6718   93.4824   10.3608 O.3     1  UNL1       -0.3845
     27 C          65.3263   92.4257   10.7249 C.3     1  UNL1        0.0293
     28 C          64.3335   91.7433   11.6185 C.3     1  UNL1        0.0042
     29 H          68.4885   93.6528   10.8557 H       1  UNL1        0.2103
@<TRIPOS>BOND
     1     9    10    2
     2    10    11    2
     3    10    12    1
     4    12    14    1
     5    14    15   ar
     6    15    16   ar
     7    16    17   ar
     8    17    18   ar
     9    10     1    1
    10     1     2   ar
    11     2     3   ar
    12     3     4    1
    13     3     5   ar
    14     5    19    1
    15    19    21    1
    16    22    21    1
    17    22    23    1
    18    23    24    1
    19    24    25    1
    20    25    26    1
    21    25    27    1
    22    27    28    1
    23     5     6   ar
    24     6     7   ar
    25     7     8    1
    26    18    14   ar
    27     7     1   ar
    28    28    22    1
    29    12    13    1
    30    19    20    1
    31    26    29    1
@<TRIPOS>MOLECULE
*****
 29 31 0 0 0
SMALL
GASTEIGER

@<TRIPOS>ATOM
      1 C          63.7065   86.4082   14.7374 C.ar    1  UNL1        0.1534
      2 C          63.6714   87.3952   15.8663 C.ar    1  UNL1        0.0351
      3 C          63.5712   88.8634   15.5760 C.ar    1  UNL1        0.0722
      4 CL         63.5362   89.8506   16.7049 Cl      1  UNL1       -0.0809
      5 C          63.5061   89.3445   14.1567 C.ar    1  UNL1        0.0577
      6 C          63.5412   88.3575   13.0278 C.ar    1  UNL1        0.0462
      7 C          63.6414   86.8893   13.3182 C.ar    1  UNL1        0.1602
      8 F          63.6765   85.9021   12.1893 F       1  UNL1       -0.2027
      9 O          65.2786   84.9839   14.7423 O.2     1  UNL1       -0.1498
     10 S          63.8067   84.9399   15.0278 S.O2    1  UNL1        0.0772
     11 O          62.3348   84.8959   15.3133 O.2     1  UNL1       -0.1498
     12 N          63.9069   83.4717   15.3181 N.pl3   1  UNL1       -0.1936
     13 H          64.3375   83.1622   16.1476 H       1  UNL1        0.1758
     14 C          63.3511   82.4750   14.3445 C.ar    1  UNL1        0.1786
     15 N          62.2835   81.4616   14.6330 N.ar    1  UNL1       -0.2214
     16 C          62.0379   80.6770   13.3784 C.ar    1  UNL1        0.1079
     17 C          62.9538   81.2055   12.3144 C.ar    1  UNL1        0.0588
     18 S          63.7654   82.3168   12.9116 S.2     1  UNL1       -0.0497
     19 N          63.4059   90.8128   13.8664 N.pl3   1  UNL1       -0.3319
     20 H          62.5952   91.3105   14.1198 H       1  UNL1        0.1468
     21 C          64.5410   91.5227   13.1900 C.3     1  UNL1        0.0870
     22 C          65.7591   91.9086   13.9758 C.3     1  UNL1        0.0197
     23 C          67.1103   91.8839   13.3250 C.3     1  UNL1        0.0042
     24 C          68.3284   92.2697   14.1108 C.3     1  UNL1        0.0293
     25 C          68.1952   92.6802   15.5473 C.3     1  UNL1        0.1105
     26 O          69.4133   93.0660   16.3331 O.3     1  UNL1       -0.3845
     27 C          66.8440   92.7049   16.1981 C.3     1  UNL1        0.0293
     28 C          65.6259   92.3190   15.4123 C.3     1  UNL1        0.0042
     29 H          70.1984   92.9960   15.7677 H       1  UNL1        0.2103
@<TRIPOS>BOND
     1     9    10    2
     2    10    11    2
     3    10    12    1
     4    12    14    1
     5    14    15   ar
     6    15    16   ar
     7    16    17   ar
     8    17    18   ar
     9    10     1    1
    10     1     2   ar
    11     2     3   ar
    12     3     4    1
    13     3     5   ar
    14     5    19    1
    15    19    21    1
    16    22    21    1
    17    22    23    1
    18    23    24    1
    19    24    25    1
    20    25    26    1
    21    25    27    1
    22    27    28    1
    23     5     6   ar
    24     6     7   ar
    25     7     8    1
    26    18    14   ar
    27     7     1   ar
    28    28    22    1
    29    12    13    1
    30    19    20    1
    31    26    29    1
@<TRIPOS>MOLECULE
*****
 29 31 0 0 0
SMALL
GASTEIGER

@<TRIPOS>ATOM
      1 C          64.2892   90.2570   13.8796 C.ar    1  UNL1        0.1534
      2 C          64.5448   88.9372   14.5448 C.ar    1  UNL1        0.0351
      3 C          64.0134   87.6743   13.9344 C.ar    1  UNL1        0.0722
      4 CL         64.2690   86.3544   14.5997 Cl      1  UNL1       -0.0809
      5 C          63.2264   87.7312   12.6587 C.ar    1  UNL1        0.0577
      6 C          62.9707   89.0511   11.9935 C.ar    1  UNL1        0.0462
      7 C          63.5021   90.3140   12.6039 C.ar    1  UNL1        0.1602
      8 F          63.2465   91.6339   11.9386 F       1  UNL1       -0.2027
      9 O          65.8428   91.6182   13.3968 O.2     1  UNL1       -0.1498
     10 S          64.8206   91.5200   14.4900 S.O2    1  UNL1        0.0772
     11 O          63.7983   91.4218   15.5832 O.2     1  UNL1       -0.1498
     12 N          65.3520   92.7830   15.1003 N.pl3   1  UNL1       -0.1936
     13 H          64.7424   93.5325   15.2899 H       1  UNL1        0.1758
     14 C          66.8121   92.9040   15.4219 C.ar    1  UNL1        0.1786
     15 N          67.6736   94.1059   15.1707 N.ar    1  UNL1       -0.2214
     16 C          69.0610   93.7891   15.6447 C.ar    1  UNL1        0.1079
     17 C          69.0570   92.3912   16.1888 C.ar    1  UNL1        0.0588
     18 S          67.6671   91.8442   16.0511 S.2     1  UNL1       -0.0497
     19 N          62.6950   86.4682   12.0483 N.pl3   1  UNL1       -0.3319
     20 H          63.1296   85.6066   12.2430 H       1  UNL1        0.1468
     21 C          61.5014   86.5181   11.1413 C.3     1  UNL1        0.0870
     22 C          61.6064   86.0077    9.7346 C.3     1  UNL1        0.0197
     23 C          62.8319   85.2616    9.2971 C.3     1  UNL1        0.0042
     24 C          62.9369   84.7512    7.8905 C.3     1  UNL1        0.0293
     25 C          61.8165   84.9869    6.9215 C.3     1  UNL1        0.1105
     26 O          61.9215   84.4765    5.5149 O.3     1  UNL1       -0.3845
     27 C          60.5910   85.7330    7.3591 C.3     1  UNL1        0.0293
     28 C          60.4860   86.2433    8.7656 C.3     1  UNL1        0.0042
     29 H          62.7700   84.0209    5.3988 H       1  UNL1        0.2103
@<TRIPOS>BOND
     1     9    10    2
     2    10    11    2
     3    10    12    1
     4    12    14    1
     5    14    15   ar
     6    15    16   ar
     7    16    17   ar
     8    17    18   ar
     9    10     1    1
    10     1     2   ar
    11     2     3   ar
    12     3     4    1
    13     3     5   ar
    14     5    19    1
    15    19    21    1
    16    22    21    1
    17    22    23    1
    18    23    24    1
    19    24    25    1
    20    25    26    1
    21    25    27    1
    22    27    28    1
    23     5     6   ar
    24     6     7   ar
    25     7     8    1
    26    18    14   ar
    27     7     1   ar
    28    28    22    1
    29    12    13    1
    30    19    20    1
    31    26    29    1
@<TRIPOS>MOLECULE
*****
 29 31 0 0 0
SMALL
GASTEIGER

@<TRIPOS>ATOM
      1 C          64.1405   91.1026   11.9310 C.ar    1  UNL1        0.1534
      2 C          64.0872   89.8983   12.8237 C.ar    1  UNL1        0.0351
      3 C          63.0615   88.8308   12.5825 C.ar    1  UNL1        0.0722
      4 CL         63.0082   87.6265   13.4752 Cl      1  UNL1       -0.0809
      5 C          62.0891   88.9675   11.4486 C.ar    1  UNL1        0.0577
      6 C          62.1424   90.1717   10.5559 C.ar    1  UNL1        0.0462
      7 C          63.1681   91.2393   10.7971 C.ar    1  UNL1        0.1602
      8 F          63.2214   92.4436    9.9044 F       1  UNL1       -0.2027
      9 O          65.6048   92.0721   10.7412 O.2     1  UNL1       -0.1498
     10 S          65.1662   92.1702   12.1722 S.O2    1  UNL1        0.0772
     11 O          64.7277   92.2683   13.6033 O.2     1  UNL1       -0.1498
     12 N          66.1920   93.2377   12.4134 N.pl3   1  UNL1       -0.1936
     13 H          66.2290   94.0266   11.8255 H       1  UNL1        0.1758
     14 C          67.1613   93.1035   13.5503 C.ar    1  UNL1        0.1786
     15 N          68.3905   92.2440   13.5640 N.ar    1  UNL1       -0.2214
     16 C          69.0604   92.4145   14.8952 C.ar    1  UNL1        0.1079
     17 C          68.2452   93.3793   15.7043 C.ar    1  UNL1        0.0588
     18 S          67.0713   93.8052   14.8730 S.2     1  UNL1       -0.0497
     19 N          61.0633   87.8999   11.2074 N.pl3   1  UNL1       -0.3319
     20 H          60.3097   87.7914   11.8315 H       1  UNL1        0.1468
     21 C          61.1859   86.9977   10.0154 C.3     1  UNL1        0.0870
     22 C          62.0871   85.7998   10.0709 C.3     1  UNL1        0.0197
     23 C          62.2204   85.0199   11.3451 C.3     1  UNL1        0.0042
     24 C          63.1216   83.8221   11.4006 C.3     1  UNL1        0.0293
     25 C          63.8896   83.4043   10.1817 C.3     1  UNL1        0.1105
     26 O          64.7909   82.2065   10.2372 O.3     1  UNL1       -0.3845
     27 C          63.7564   84.1843    8.9074 C.3     1  UNL1        0.0293
     28 C          62.8551   85.3820    8.8520 C.3     1  UNL1        0.0042
     29 H          64.7617   81.8208   11.1268 H       1  UNL1        0.2103
@<TRIPOS>BOND
     1     9    10    2
     2    10    11    2
     3    10    12    1
     4    12    14    1
     5    14    15   ar
     6    15    16   ar
     7    16    17   ar
     8    17    18   ar
     9    10     1    1
    10     1     2   ar
    11     2     3   ar
    12     3     4    1
    13     3     5   ar
    14     5    19    1
    15    19    21    1
    16    22    21    1
    17    22    23    1
    18    23    24    1
    19    24    25    1
    20    25    26    1
    21    25    27    1
    22    27    28    1
    23     5     6   ar
    24     6     7   ar
    25     7     8    1
    26    18    14   ar
    27     7     1   ar
    28    28    22    1
    29    12    13    1
    30    19    20    1
    31    26    29    1
