@<TRIPOS>MOLECULE
*****
 38 40 0 0 0
SMALL
GASTEIGER

@<TRIPOS>ATOM
      1 C          64.4549   90.8958   13.1843 C.ar    1  UNL1        0.1726
      2 C          64.6823   89.8174   14.2018 C.ar    1  UNL1        0.0411
      3 C          64.1238   88.4436   13.9763 C.ar    1  UNL1        0.0180
      4 C          63.3380   88.1482   12.7333 C.ar    1  UNL1        0.0540
      5 C          63.1106   89.2266   11.7157 C.ar    1  UNL1        0.0475
      6 C          63.6691   90.6004   11.9412 C.ar    1  UNL1        0.1756
      7 F          63.4417   91.6787   10.9237 F       1  UNL1       -0.2009
      8 N          62.7796   86.7744   12.5078 N.am    1  UNL1       -0.2679
      9 C          63.0396   85.6859   13.5064 C.2     1  UNL1        0.3102
     10 O          63.8582   85.9711   14.7307 O.2     1  UNL1       -0.2521
     11 N          62.4812   84.3121   13.2809 N.am    1  UNL1       -0.2391
     12 C          62.7413   83.2235   14.2797 C.2     1  UNL1        0.2337
     13 O          63.5598   83.5087   15.5038 O.2     1  UNL1       -0.2743
     14 H          62.2423   86.5872   11.7043 H       1  UNL1        0.1564
     15 H          61.9440   84.1249   12.4774 H       1  UNL1        0.1591
     16 C          62.1828   81.8497   14.0541 C.3     1  UNL1        0.1118
     17 C          62.4700   81.1244   12.7730 C.ar    1  UNL1       -0.0129
     18 C          62.8596   81.8946   11.5463 C.ar    1  UNL1       -0.0015
     19 C          63.1468   81.1693   10.2650 C.ar    1  UNL1        0.0293
     20 C          63.0443   79.6738   10.2106 C.ar    1  UNL1        0.1401
     21 F          63.3314   78.9484    8.9294 F       1  UNL1       -0.2042
     22 C          62.6546   78.9036   11.4374 C.ar    1  UNL1        0.0293
     23 C          62.3674   79.6289   12.7186 C.ar    1  UNL1       -0.0015
     24 O          65.0134   92.2695   13.4098 O.3     1  UNL1       -0.4505
     25 N          70.1722   92.5395   13.9700 N.pl3   1  UNL1       -0.3421
     26 C          68.7964   92.5904   14.5655 C.ar    1  UNL1        0.1360
     27 N          68.6243   92.8271   16.0367 N.ar    1  UNL1       -0.2288
     28 C          67.2485   92.8780   16.6322 C.ar    1  UNL1        0.1035
     29 C          66.0449   92.6921   15.7566 C.ar    1  UNL1        0.0589
     30 C          66.2170   92.4554   14.2855 C.ar    1  UNL1        0.1572
     31 C          67.5928   92.4046   13.6900 C.ar    1  UNL1        0.1072
     32 H          70.9622   92.6615   14.5447 H       1  UNL1        0.1437
     33 H          70.2852   92.3842   13.0044 H       1  UNL1        0.1437
     34 C          67.7649   92.1678   12.2187 C.1     1  UNL1       -0.0560
     35 C          67.9369   91.9312   10.7476 C.1     1  UNL1       -0.0539
     36 C          68.1090   91.6944    9.2763 C.3     1  UNL1        0.2146
     37 O          68.4338   92.8409    8.3652 O.3     1  UNL1       -0.3697
     38 H          67.6864   93.4587    8.3439 H       1  UNL1        0.2117
@<TRIPOS>BOND
     1    25    26    1
     2    26    27   ar
     3    27    28   ar
     4    28    29   ar
     5    29    30   ar
     6    30    24    1
     7    24     1    1
     8     1     2   ar
     9     2     3   ar
    10     3     4   ar
    11     4     8    1
    12     8     9   am
    13     9    10    2
    14     9    11   am
    15    11    12   am
    16    12    13    2
    17    12    16    1
    18    16    17    1
    19    17    18   ar
    20    18    19   ar
    21    19    20   ar
    22    20    21    1
    23    20    22   ar
    24    22    23   ar
    25     4     5   ar
    26     5     6   ar
    27     6     7    1
    28    30    31   ar
    29    31    34    1
    30    34    35    3
    31    35    36    1
    32    36    37    1
    33    31    26   ar
    34     6     1   ar
    35    23    17   ar
    36    25    32    1
    37    25    33    1
    38     8    14    1
    39    11    15    1
    40    37    38    1
@<TRIPOS>MOLECULE
*****
 38 40 0 0 0
SMALL
GASTEIGER

@<TRIPOS>ATOM
      1 C          62.1410   86.7746   12.1065 C.ar    1  UNL1        0.1726
      2 C          63.0894   87.5302   12.9893 C.ar    1  UNL1        0.0411
      3 C          63.5552   88.8994   12.5913 C.ar    1  UNL1        0.0180
      4 C          63.0725   89.5130   11.3105 C.ar    1  UNL1        0.0540
      5 C          62.1240   88.7573   10.4276 C.ar    1  UNL1        0.0475
      6 C          61.6583   87.3881   10.8256 C.ar    1  UNL1        0.1756
      7 F          60.7098   86.6325    9.9428 F       1  UNL1       -0.2009
      8 N          63.5382   90.8822   10.9126 N.am    1  UNL1       -0.2679
      9 C          64.4813   91.6406   11.7987 C.2     1  UNL1        0.3102
     10 O          64.9588   91.0298   13.0829 O.2     1  UNL1       -0.2521
     11 N          64.9471   93.0098   11.4007 N.am    1  UNL1       -0.2391
     12 C          65.8902   93.7682   12.2869 C.2     1  UNL1        0.2337
     13 O          66.3676   93.1574   13.5710 O.2     1  UNL1       -0.2743
     14 H          63.2248   91.2831   10.0697 H       1  UNL1        0.1564
     15 H          64.6337   93.4107   10.5579 H       1  UNL1        0.1591
     16 C          66.3560   95.1374   11.8890 C.3     1  UNL1        0.1118
     17 C          66.2820   95.5671   10.4537 C.ar    1  UNL1       -0.0129
     18 C          67.3462   95.1392    9.4871 C.ar    1  UNL1       -0.0015
     19 C          67.2723   95.5689    8.0518 C.ar    1  UNL1        0.0293
     20 C          66.1342   96.4263    7.5832 C.ar    1  UNL1        0.1401
     21 F          66.0603   96.8560    6.1480 F       1  UNL1       -0.2042
     22 C          65.0700   96.8542    8.5500 C.ar    1  UNL1        0.0293
     23 C          65.1440   96.4245    9.9852 C.ar    1  UNL1       -0.0015
     24 O          61.6753   85.4054   12.5044 O.3     1  UNL1       -0.4505
     25 N          65.0394   82.4419   15.1314 N.pl3   1  UNL1       -0.3421
     26 C          64.3296   82.7820   13.8545 C.ar    1  UNL1        0.1360
     27 N          64.5920   81.9803   12.6141 N.ar    1  UNL1       -0.2288
     28 C          63.8821   82.3204   11.3372 C.ar    1  UNL1        0.1035
     29 C          62.9099   83.4620   11.3006 C.ar    1  UNL1        0.0589
     30 C          62.6475   84.2636   12.5410 C.ar    1  UNL1        0.1572
     31 C          63.3574   83.9236   13.8179 C.ar    1  UNL1        0.1072
     32 H          65.6775   81.6926   15.1554 H       1  UNL1        0.1437
     33 H          64.8672   82.9681   15.9455 H       1  UNL1        0.1437
     34 C          63.0950   84.7253   15.0583 C.1     1  UNL1       -0.0560
     35 C          62.8325   85.5270   16.2986 C.1     1  UNL1       -0.0539
     36 C          62.5701   86.3287   17.5390 C.3     1  UNL1        0.2146
     37 O          62.8614   87.8000   17.5566 O.3     1  UNL1       -0.3697
     38 H          63.8172   87.9414   17.4711 H       1  UNL1        0.2117
@<TRIPOS>BOND
     1    25    26    1
     2    26    27   ar
     3    27    28   ar
     4    28    29   ar
     5    29    30   ar
     6    30    24    1
     7    24     1    1
     8     1     2   ar
     9     2     3   ar
    10     3     4   ar
    11     4     8    1
    12     8     9   am
    13     9    10    2
    14     9    11   am
    15    11    12   am
    16    12    13    2
    17    12    16    1
    18    16    17    1
    19    17    18   ar
    20    18    19   ar
    21    19    20   ar
    22    20    21    1
    23    20    22   ar
    24    22    23   ar
    25     4     5   ar
    26     5     6   ar
    27     6     7    1
    28    30    31   ar
    29    31    34    1
    30    34    35    3
    31    35    36    1
    32    36    37    1
    33    31    26   ar
    34     6     1   ar
    35    23    17   ar
    36    25    32    1
    37    25    33    1
    38     8    14    1
    39    11    15    1
    40    37    38    1
@<TRIPOS>MOLECULE
*****
 38 40 0 0 0
SMALL
GASTEIGER

@<TRIPOS>ATOM
      1 C          62.0003   86.8316   12.0265 C.ar    1  UNL1        0.1726
      2 C          63.0289   87.5285   12.8668 C.ar    1  UNL1        0.0411
      3 C          63.5298   88.8848   12.4676 C.ar    1  UNL1        0.0180
      4 C          63.0022   89.5443   11.2280 C.ar    1  UNL1        0.0540
      5 C          61.9736   88.8474   10.3875 C.ar    1  UNL1        0.0475
      6 C          61.4726   87.4910   10.7868 C.ar    1  UNL1        0.1756
      7 F          60.4440   86.7941    9.9464 F       1  UNL1       -0.2009
      8 N          63.5032   90.9006   10.8287 N.am    1  UNL1       -0.2679
      9 C          64.4214   91.6593   11.7405 C.2     1  UNL1        0.3102
     10 O          64.8387   91.0616   13.0515 O.2     1  UNL1       -0.2521
     11 N          64.9223   93.0156   11.3412 N.am    1  UNL1       -0.2391
     12 C          65.8406   93.7743   12.2530 C.2     1  UNL1        0.2337
     13 O          66.2579   93.1766   13.5640 O.2     1  UNL1       -0.2743
     14 H          63.2293   91.2929    9.9683 H       1  UNL1        0.1564
     15 H          64.6485   93.4079   10.4808 H       1  UNL1        0.1591
     16 C          66.3416   95.1306   11.8538 C.3     1  UNL1        0.1118
     17 C          66.2758   95.5619   10.4187 C.ar    1  UNL1       -0.0129
     18 C          67.3429   95.1314    9.4565 C.ar    1  UNL1       -0.0015
     19 C          67.2771   95.5627    8.0213 C.ar    1  UNL1        0.0293
     20 C          66.1442   96.4246    7.5484 C.ar    1  UNL1        0.1401
     21 F          66.0784   96.8559    6.1133 F       1  UNL1       -0.2042
     22 C          65.0770   96.8551    8.5106 C.ar    1  UNL1        0.0293
     23 C          65.1428   96.4238    9.9457 C.ar    1  UNL1       -0.0015
     24 O          61.4994   85.4753   12.4257 O.3     1  UNL1       -0.4505
     25 N          65.0348   82.0598   10.7419 N.pl3   1  UNL1       -0.3421
     26 C          64.2404   82.6609   11.8633 C.ar    1  UNL1        0.1360
     27 N          64.4192   82.1554   13.2641 N.ar    1  UNL1       -0.2288
     28 C          63.6248   82.7566   14.3855 C.ar    1  UNL1        0.1035
     29 C          62.6515   83.8632   14.1061 C.ar    1  UNL1        0.0589
     30 C          62.4727   84.3686   12.7052 C.ar    1  UNL1        0.1572
     31 C          63.2671   83.7675   11.5838 C.ar    1  UNL1        0.1072
     32 H          65.6736   81.3335   10.9253 H       1  UNL1        0.1437
     33 H          64.9174   82.3915    9.8224 H       1  UNL1        0.1437
     34 C          63.0882   84.2730   10.1829 C.1     1  UNL1       -0.0560
     35 C          62.9094   84.7785    8.7820 C.1     1  UNL1       -0.0539
     36 C          62.7305   85.2840    7.3811 C.3     1  UNL1        0.2146
     37 O          62.0243   84.4385    6.3631 O.3     1  UNL1       -0.3697
     38 H          62.5496   83.6432    6.1829 H       1  UNL1        0.2117
@<TRIPOS>BOND
     1    25    26    1
     2    26    27   ar
     3    27    28   ar
     4    28    29   ar
     5    29    30   ar
     6    30    24    1
     7    24     1    1
     8     1     2   ar
     9     2     3   ar
    10     3     4   ar
    11     4     8    1
    12     8     9   am
    13     9    10    2
    14     9    11   am
    15    11    12   am
    16    12    13    2
    17    12    16    1
    18    16    17    1
    19    17    18   ar
    20    18    19   ar
    21    19    20   ar
    22    20    21    1
    23    20    22   ar
    24    22    23   ar
    25     4     5   ar
    26     5     6   ar
    27     6     7    1
    28    30    31   ar
    29    31    34    1
    30    34    35    3
    31    35    36    1
    32    36    37    1
    33    31    26   ar
    34     6     1   ar
    35    23    17   ar
    36    25    32    1
    37    25    33    1
    38     8    14    1
    39    11    15    1
    40    37    38    1
@<TRIPOS>MOLECULE
*****
 38 40 0 0 0
SMALL
GASTEIGER

@<TRIPOS>ATOM
      1 C          60.8504   87.0238   10.2691 C.ar    1  UNL1        0.1726
      2 C          60.3221   86.3105    9.0599 C.ar    1  UNL1        0.0411
      3 C          59.6554   87.0866    7.9630 C.ar    1  UNL1        0.0180
      4 C          59.5170   88.5759    8.0753 C.ar    1  UNL1        0.0540
      5 C          60.0453   89.2893    9.2845 C.ar    1  UNL1        0.0475
      6 C          60.7120   88.5132   10.3814 C.ar    1  UNL1        0.1756
      7 F          61.2404   89.2265   11.5905 F       1  UNL1       -0.2009
      8 N          58.8503   89.3520    6.9784 N.am    1  UNL1       -0.2679
      9 C          59.6689   90.2203    6.0696 C.2     1  UNL1        0.3102
     10 O          61.1542   90.3126    6.2577 O.2     1  UNL1       -0.2521
     11 N          59.0022   90.9964    4.9727 N.am    1  UNL1       -0.2391
     12 C          59.8208   91.8648    4.0638 C.2     1  UNL1        0.2337
     13 O          61.3061   91.9570    4.2520 O.2     1  UNL1       -0.2743
     14 H          57.8755   89.2915    6.8549 H       1  UNL1        0.1564
     15 H          58.0273   90.9359    4.8492 H       1  UNL1        0.1591
     16 C          59.1541   92.6409    2.9669 C.3     1  UNL1        0.1118
     17 C          59.9763   93.2348    1.8619 C.ar    1  UNL1       -0.0129
     18 C          60.4221   92.3773    0.7148 C.ar    1  UNL1       -0.0015
     19 C          61.2443   92.9713   -0.3904 C.ar    1  UNL1        0.0293
     20 C          61.6206   94.4227   -0.3484 C.ar    1  UNL1        0.1401
     21 F          62.4427   95.0166   -1.4535 F       1  UNL1       -0.2042
     22 C          61.1747   95.2802    0.7988 C.ar    1  UNL1        0.0293
     23 C          60.3525   94.6862    1.9039 C.ar    1  UNL1       -0.0015
     24 O          61.5171   86.2477   11.3660 O.3     1  UNL1       -0.4505
     25 N          64.7848   82.5033   12.8830 N.pl3   1  UNL1       -0.3421
     26 C          64.1453   83.3040   11.7877 C.ar    1  UNL1        0.1360
     27 N          64.5000   83.0334   10.3556 N.ar    1  UNL1       -0.2288
     28 C          63.8604   83.8342    9.2603 C.ar    1  UNL1        0.1035
     29 C          62.8661   84.9056    9.5971 C.ar    1  UNL1        0.0589
     30 C          62.5114   85.1762   11.0292 C.ar    1  UNL1        0.1572
     31 C          63.1510   84.3754   12.1245 C.ar    1  UNL1        0.1072
     32 H          65.4374   81.8000   12.6620 H       1  UNL1        0.1437
     33 H          64.5520   82.6809   13.8230 H       1  UNL1        0.1437
     34 C          62.7962   84.6461   13.5566 C.1     1  UNL1       -0.0560
     35 C          62.4415   84.9168   14.9887 C.1     1  UNL1       -0.0539
     36 C          62.0867   85.1874   16.4208 C.3     1  UNL1        0.2146
     37 O          60.8510   85.9705   16.7522 O.3     1  UNL1       -0.3697
     38 H          60.9507   86.8816   16.4347 H       1  UNL1        0.2117
@<TRIPOS>BOND
     1    25    26    1
     2    26    27   ar
     3    27    28   ar
     4    28    29   ar
     5    29    30   ar
     6    30    24    1
     7    24     1    1
     8     1     2   ar
     9     2     3   ar
    10     3     4   ar
    11     4     8    1
    12     8     9   am
    13     9    10    2
    14     9    11   am
    15    11    12   am
    16    12    13    2
    17    12    16    1
    18    16    17    1
    19    17    18   ar
    20    18    19   ar
    21    19    20   ar
    22    20    21    1
    23    20    22   ar
    24    22    23   ar
    25     4     5   ar
    26     5     6   ar
    27     6     7    1
    28    30    31   ar
    29    31    34    1
    30    34    35    3
    31    35    36    1
    32    36    37    1
    33    31    26   ar
    34     6     1   ar
    35    23    17   ar
    36    25    32    1
    37    25    33    1
    38     8    14    1
    39    11    15    1
    40    37    38    1
@<TRIPOS>MOLECULE
*****
 38 40 0 0 0
SMALL
GASTEIGER

@<TRIPOS>ATOM
      1 C          60.6810   87.3646    9.1589 C.ar    1  UNL1        0.1726
      2 C          60.6079   88.8476    9.3719 C.ar    1  UNL1        0.0411
      3 C          59.9860   89.7257    8.3267 C.ar    1  UNL1        0.0180
      4 C          59.4373   89.1208    7.0686 C.ar    1  UNL1        0.0540
      5 C          59.5104   87.6377    6.8556 C.ar    1  UNL1        0.0475
      6 C          60.1323   86.7597    7.9007 C.ar    1  UNL1        0.1756
      7 F          60.2054   85.2767    7.6877 F       1  UNL1       -0.2009
      8 N          58.8154   89.9988    6.0235 N.am    1  UNL1       -0.2679
      9 C          59.6865   90.7930    5.0959 C.2     1  UNL1        0.3102
     10 O          61.1796   90.7091    5.2135 O.2     1  UNL1       -0.2521
     11 N          59.0647   91.6710    4.0508 N.am    1  UNL1       -0.2391
     12 C          59.9359   92.4652    3.1232 C.2     1  UNL1        0.2337
     13 O          61.4289   92.3813    3.2408 O.2     1  UNL1       -0.2743
     14 H          57.8355   90.0539    5.9463 H       1  UNL1        0.1564
     15 H          58.0848   91.7261    3.9736 H       1  UNL1        0.1591
     16 C          59.3140   93.3433    2.0781 C.3     1  UNL1        0.1118
     17 C          60.0960   93.7236    0.8559 C.ar    1  UNL1       -0.0129
     18 C          60.3288   95.1701    0.5346 C.ar    1  UNL1       -0.0015
     19 C          61.1108   95.5505   -0.6877 C.ar    1  UNL1        0.0293
     20 C          61.6600   94.4843   -1.5886 C.ar    1  UNL1        0.1401
     21 F          62.4420   94.8646   -2.8108 F       1  UNL1       -0.2042
     22 C          61.4271   93.0377   -1.2672 C.ar    1  UNL1        0.0293
     23 C          60.6452   92.6574   -0.0450 C.ar    1  UNL1       -0.0015
     24 O          61.3029   86.4866   10.2040 O.3     1  UNL1       -0.4505
     25 N          64.4401   85.9200   14.3073 N.pl3   1  UNL1       -0.3421
     26 C          63.7266   86.8067   13.3302 C.ar    1  UNL1        0.1360
     27 N          63.8683   88.2968   13.4276 N.ar    1  UNL1       -0.2288
     28 C          63.1549   89.1835   12.4505 C.ar    1  UNL1        0.1035
     29 C          62.2998   88.5801   11.3760 C.ar    1  UNL1        0.0589
     30 C          62.1581   87.0900   11.2786 C.ar    1  UNL1        0.1572
     31 C          62.8715   86.2033   12.2557 C.ar    1  UNL1        0.1072
     32 H          65.0014   86.3160   15.0125 H       1  UNL1        0.1437
     33 H          64.3471   84.9420   14.2434 H       1  UNL1        0.1437
     34 C          62.7298   84.7132   12.1582 C.1     1  UNL1       -0.0560
     35 C          62.5880   83.2231   12.0608 C.1     1  UNL1       -0.0539
     36 C          62.4463   81.7329   11.9633 C.3     1  UNL1        0.2146
     37 O          62.2306   80.9174   13.2036 O.3     1  UNL1       -0.3697
     38 H          63.0194   80.9690   13.7658 H       1  UNL1        0.2117
@<TRIPOS>BOND
     1    25    26    1
     2    26    27   ar
     3    27    28   ar
     4    28    29   ar
     5    29    30   ar
     6    30    24    1
     7    24     1    1
     8     1     2   ar
     9     2     3   ar
    10     3     4   ar
    11     4     8    1
    12     8     9   am
    13     9    10    2
    14     9    11   am
    15    11    12   am
    16    12    13    2
    17    12    16    1
    18    16    17    1
    19    17    18   ar
    20    18    19   ar
    21    19    20   ar
    22    20    21    1
    23    20    22   ar
    24    22    23   ar
    25     4     5   ar
    26     5     6   ar
    27     6     7    1
    28    30    31   ar
    29    31    34    1
    30    34    35    3
    31    35    36    1
    32    36    37    1
    33    31    26   ar
    34     6     1   ar
    35    23    17   ar
    36    25    32    1
    37    25    33    1
    38     8    14    1
    39    11    15    1
    40    37    38    1
@<TRIPOS>MOLECULE
*****
 38 40 0 0 0
SMALL
GASTEIGER

@<TRIPOS>ATOM
      1 C          63.0897   90.3183   11.6311 C.ar    1  UNL1        0.1726
      2 C          63.5343   89.4572   12.7759 C.ar    1  UNL1        0.0411
      3 C          63.3102   87.9747   12.7306 C.ar    1  UNL1        0.0180
      4 C          62.6414   87.3534   11.5404 C.ar    1  UNL1        0.0540
      5 C          62.1968   88.2145   10.3954 C.ar    1  UNL1        0.0475
      6 C          62.4209   89.6970   10.4408 C.ar    1  UNL1        0.1756
      7 F          61.9762   90.5581    9.2959 F       1  UNL1       -0.2009
      8 N          62.4173   85.8709   11.4950 N.am    1  UNL1       -0.2679
      9 C          62.6451   85.0400   12.7229 C.2     1  UNL1        0.3102
     10 O          63.0970   85.6916   13.9962 O.2     1  UNL1       -0.2521
     11 N          62.4210   83.5576   12.6775 N.am    1  UNL1       -0.2391
     12 C          62.6488   82.7267   13.9055 C.2     1  UNL1        0.2337
     13 O          63.1007   83.3783   15.1787 O.2     1  UNL1       -0.2743
     14 H          62.1208   85.4432   10.6593 H       1  UNL1        0.1564
     15 H          62.1244   83.1299   11.8418 H       1  UNL1        0.1591
     16 C          62.4247   81.2442   13.8601 C.3     1  UNL1        0.1118
     17 C          62.6272   80.4940   12.5771 C.ar    1  UNL1       -0.0129
     18 C          63.0243   81.2306   11.3323 C.ar    1  UNL1       -0.0015
     19 C          63.2267   80.4804   10.0492 C.ar    1  UNL1        0.0293
     20 C          63.0321   78.9936   10.0110 C.ar    1  UNL1        0.1401
     21 F          63.2345   78.2434    8.7280 F       1  UNL1       -0.2042
     22 C          62.6349   78.2570   11.2560 C.ar    1  UNL1        0.0293
     23 C          62.4325   79.0072   12.5390 C.ar    1  UNL1       -0.0015
     24 O          63.3138   91.8008   11.6764 O.3     1  UNL1       -0.4505
     25 N          67.7422   92.9511   14.1394 N.pl3   1  UNL1       -0.3421
     26 C          66.9238   92.9245   12.8826 C.ar    1  UNL1        0.1360
     27 N          67.5013   93.4466   11.6004 N.ar    1  UNL1       -0.2288
     28 C          66.6829   93.4201   10.3436 C.ar    1  UNL1        0.1035
     29 C          65.2871   92.8715   10.3689 C.ar    1  UNL1        0.0589
     30 C          64.7097   92.3494   11.6511 C.ar    1  UNL1        0.1572
     31 C          65.5280   92.3759   12.9079 C.ar    1  UNL1        0.1072
     32 H          68.6583   93.3111   14.1228 H       1  UNL1        0.1437
     33 H          67.3631   92.6084   14.9809 H       1  UNL1        0.1437
     34 C          64.9505   91.8538   14.1901 C.1     1  UNL1       -0.0560
     35 C          64.3729   91.3318   15.4722 C.1     1  UNL1       -0.0539
     36 C          63.7954   90.8097   16.7544 C.3     1  UNL1        0.2146
     37 O          63.2347   89.4197   16.8132 O.3     1  UNL1       -0.3697
     38 H          62.4494   89.3636   16.2467 H       1  UNL1        0.2117
@<TRIPOS>BOND
     1    25    26    1
     2    26    27   ar
     3    27    28   ar
     4    28    29   ar
     5    29    30   ar
     6    30    24    1
     7    24     1    1
     8     1     2   ar
     9     2     3   ar
    10     3     4   ar
    11     4     8    1
    12     8     9   am
    13     9    10    2
    14     9    11   am
    15    11    12   am
    16    12    13    2
    17    12    16    1
    18    16    17    1
    19    17    18   ar
    20    18    19   ar
    21    19    20   ar
    22    20    21    1
    23    20    22   ar
    24    22    23   ar
    25     4     5   ar
    26     5     6   ar
    27     6     7    1
    28    30    31   ar
    29    31    34    1
    30    34    35    3
    31    35    36    1
    32    36    37    1
    33    31    26   ar
    34     6     1   ar
    35    23    17   ar
    36    25    32    1
    37    25    33    1
    38     8    14    1
    39    11    15    1
    40    37    38    1
@<TRIPOS>MOLECULE
*****
 38 40 0 0 0
SMALL
GASTEIGER

@<TRIPOS>ATOM
      1 C          63.5992   84.6288   11.6435 C.ar    1  UNL1        0.1726
      2 C          63.2326   85.8081   12.4948 C.ar    1  UNL1        0.0411
      3 C          62.6092   87.0203   11.8687 C.ar    1  UNL1        0.0180
      4 C          62.3525   87.0532   10.3913 C.ar    1  UNL1        0.0540
      5 C          62.7191   85.8739    9.5398 C.ar    1  UNL1        0.0475
      6 C          63.3425   84.6617   10.1659 C.ar    1  UNL1        0.1756
      7 F          63.7091   83.4824    9.3145 F       1  UNL1       -0.2009
      8 N          61.7291   88.2654    9.7652 N.am    1  UNL1       -0.2679
      9 C          60.7872   88.1114    8.6080 C.2     1  UNL1        0.3102
     10 O          60.4685   86.7452    8.0769 O.2     1  UNL1       -0.2521
     11 N          60.1638   89.3236    7.9819 N.am    1  UNL1       -0.2391
     12 C          59.2218   89.1696    6.8247 C.2     1  UNL1        0.2337
     13 O          58.9032   87.8034    6.2937 O.2     1  UNL1       -0.2743
     14 H          61.9382   89.1621   10.1137 H       1  UNL1        0.1564
     15 H          60.3729   90.2203    8.3305 H       1  UNL1        0.1591
     16 C          58.5984   90.3818    6.1986 C.3     1  UNL1        0.1118
     17 C          59.3367   91.1407    5.1361 C.ar    1  UNL1       -0.0129
     18 C          58.5972   92.0932    4.2440 C.ar    1  UNL1       -0.0015
     19 C          59.3355   92.8521    3.1814 C.ar    1  UNL1        0.0293
     20 C          60.8131   92.6585    3.0109 C.ar    1  UNL1        0.1401
     21 F          61.5513   93.4174    1.9484 F       1  UNL1       -0.2042
     22 C          61.5525   91.7059    3.9031 C.ar    1  UNL1        0.0293
     23 C          60.8143   90.9470    4.9656 C.ar    1  UNL1       -0.0015
     24 O          64.2226   83.4166   12.2696 O.3     1  UNL1       -0.4505
     25 N          60.7592   80.5770   14.9044 N.pl3   1  UNL1       -0.3421
     26 C          61.6915   80.7369   13.7402 C.ar    1  UNL1        0.1360
     27 N          61.8244   79.6367   12.7292 N.ar    1  UNL1       -0.2288
     28 C          62.7567   79.7966   11.5651 C.ar    1  UNL1        0.1035
     29 C          63.5561   81.0565   11.4118 C.ar    1  UNL1        0.0589
     30 C          63.4232   82.1566   12.4228 C.ar    1  UNL1        0.1572
     31 C          62.4909   81.9968   13.5869 C.ar    1  UNL1        0.1072
     32 H          60.2346   79.7501   15.0049 H       1  UNL1        0.1437
     33 H          60.6720   81.2991   15.5679 H       1  UNL1        0.1437
     34 C          62.3580   83.0970   14.5979 C.1     1  UNL1       -0.0560
     35 C          62.2252   84.1971   15.6088 C.1     1  UNL1       -0.0539
     36 C          62.0923   85.2973   16.6198 C.3     1  UNL1        0.2146
     37 O          60.7973   86.0428   16.7511 O.3     1  UNL1       -0.3697
     38 H          60.6308   86.5472   15.9394 H       1  UNL1        0.2117
@<TRIPOS>BOND
     1    25    26    1
     2    26    27   ar
     3    27    28   ar
     4    28    29   ar
     5    29    30   ar
     6    30    24    1
     7    24     1    1
     8     1     2   ar
     9     2     3   ar
    10     3     4   ar
    11     4     8    1
    12     8     9   am
    13     9    10    2
    14     9    11   am
    15    11    12   am
    16    12    13    2
    17    12    16    1
    18    16    17    1
    19    17    18   ar
    20    18    19   ar
    21    19    20   ar
    22    20    21    1
    23    20    22   ar
    24    22    23   ar
    25     4     5   ar
    26     5     6   ar
    27     6     7    1
    28    30    31   ar
    29    31    34    1
    30    34    35    3
    31    35    36    1
    32    36    37    1
    33    31    26   ar
    34     6     1   ar
    35    23    17   ar
    36    25    32    1
    37    25    33    1
    38     8    14    1
    39    11    15    1
    40    37    38    1
@<TRIPOS>MOLECULE
*****
 38 40 0 0 0
SMALL
GASTEIGER

@<TRIPOS>ATOM
      1 C          61.5009   86.6713   11.2690 C.ar    1  UNL1        0.1726
      2 C          60.5191   86.5234   10.1447 C.ar    1  UNL1        0.0411
      3 C          60.4113   87.5920    9.0975 C.ar    1  UNL1        0.0180
      4 C          61.2855   88.8085    9.1747 C.ar    1  UNL1        0.0540
      5 C          62.2674   88.9565   10.2990 C.ar    1  UNL1        0.0475
      6 C          62.3751   87.8879   11.3461 C.ar    1  UNL1        0.1756
      7 F          63.3570   88.0358   12.4704 F       1  UNL1       -0.2009
      8 N          61.1777   89.8771    8.1275 N.am    1  UNL1       -0.2679
      9 C          59.9730   89.9346    7.2358 C.2     1  UNL1        0.3102
     10 O          58.8759   88.9234    7.3912 O.2     1  UNL1       -0.2521
     11 N          59.8652   91.0032    6.1887 N.am    1  UNL1       -0.2391
     12 C          58.6604   91.0606    5.2969 C.2     1  UNL1        0.2337
     13 O          57.5634   90.0495    5.4523 O.2     1  UNL1       -0.2743
     14 H          61.8977   90.5407    8.0255 H       1  UNL1        0.1564
     15 H          60.5853   91.6668    6.0867 H       1  UNL1        0.1591
     16 C          58.5527   92.1292    4.2497 C.3     1  UNL1        0.1118
     17 C          59.6972   92.3795    3.3131 C.ar    1  UNL1       -0.0129
     18 C          59.4469   93.0074    1.9741 C.ar    1  UNL1       -0.0015
     19 C          60.5914   93.2578    1.0373 C.ar    1  UNL1        0.0293
     20 C          61.9863   92.8802    1.4397 C.ar    1  UNL1        0.1401
     21 F          63.1308   93.1306    0.5030 F       1  UNL1       -0.2042
     22 C          62.2365   92.2523    2.7788 C.ar    1  UNL1        0.0293
     23 C          61.0920   92.0020    3.7155 C.ar    1  UNL1       -0.0015
     24 O          61.6087   85.6027   12.3161 O.3     1  UNL1       -0.4505
     25 N          65.6857   83.2910   14.5598 N.pl3   1  UNL1       -0.3421
     26 C          64.7698   83.4535   13.3831 C.ar    1  UNL1        0.1360
     27 N          64.9764   82.6226   12.1515 N.ar    1  UNL1       -0.2288
     28 C          64.0605   82.7851   10.9747 C.ar    1  UNL1        0.1035
     29 C          62.9380   83.7785   11.0296 C.ar    1  UNL1        0.0589
     30 C          62.7313   84.6093   12.2612 C.ar    1  UNL1        0.1572
     31 C          63.6472   84.4468   13.4379 C.ar    1  UNL1        0.1072
     32 H          66.4225   82.6391   14.5238 H       1  UNL1        0.1437
     33 H          65.5500   83.8364   15.3682 H       1  UNL1        0.1437
     34 C          63.4405   85.2778   14.6696 C.1     1  UNL1       -0.0560
     35 C          63.2337   86.1086   15.9012 C.1     1  UNL1       -0.0539
     36 C          63.0270   86.9396   17.1328 C.3     1  UNL1        0.2146
     37 O          62.3009   86.3642   18.3125 O.3     1  UNL1       -0.3697
     38 H          61.3761   86.1966   18.0727 H       1  UNL1        0.2117
@<TRIPOS>BOND
     1    25    26    1
     2    26    27   ar
     3    27    28   ar
     4    28    29   ar
     5    29    30   ar
     6    30    24    1
     7    24     1    1
     8     1     2   ar
     9     2     3   ar
    10     3     4   ar
    11     4     8    1
    12     8     9   am
    13     9    10    2
    14     9    11   am
    15    11    12   am
    16    12    13    2
    17    12    16    1
    18    16    17    1
    19    17    18   ar
    20    18    19   ar
    21    19    20   ar
    22    20    21    1
    23    20    22   ar
    24    22    23   ar
    25     4     5   ar
    26     5     6   ar
    27     6     7    1
    28    30    31   ar
    29    31    34    1
    30    34    35    3
    31    35    36    1
    32    36    37    1
    33    31    26   ar
    34     6     1   ar
    35    23    17   ar
    36    25    32    1
    37    25    33    1
    38     8    14    1
    39    11    15    1
    40    37    38    1
@<TRIPOS>MOLECULE
*****
 38 40 0 0 0
SMALL
GASTEIGER

@<TRIPOS>ATOM
      1 C          64.1631   92.0339   11.7683 C.ar    1  UNL1        0.1726
      2 C          64.3965   91.3422   13.0787 C.ar    1  UNL1        0.0411
      3 C          63.9359   89.9279   13.2728 C.ar    1  UNL1        0.0180
      4 C          63.2418   89.2054   12.1565 C.ar    1  UNL1        0.0540
      5 C          63.0083   89.8970   10.8461 C.ar    1  UNL1        0.0475
      6 C          63.4689   91.3113   10.6520 C.ar    1  UNL1        0.1756
      7 F          63.2355   92.0030    9.3416 F       1  UNL1       -0.2009
      8 N          62.7811   87.7911   12.3506 N.am    1  UNL1       -0.2679
      9 C          63.4052   86.9385   13.4153 C.2     1  UNL1        0.3102
     10 O          64.4899   87.5002   14.2860 O.2     1  UNL1       -0.2521
     11 N          62.9445   85.5242   13.6094 N.am    1  UNL1       -0.2391
     12 C          63.5686   84.6716   14.6742 C.2     1  UNL1        0.2337
     13 O          64.6533   85.2333   15.5448 O.2     1  UNL1       -0.2743
     14 H          62.0692   87.4225   11.7792 H       1  UNL1        0.1564
     15 H          62.2326   85.1556   13.0380 H       1  UNL1        0.1591
     16 C          63.1079   83.2574   14.8683 C.3     1  UNL1        0.1118
     17 C          63.0360   82.3245   13.6960 C.ar    1  UNL1       -0.0129
     18 C          63.4850   82.7863   12.3413 C.ar    1  UNL1       -0.0015
     19 C          63.4130   81.8533   11.1689 C.ar    1  UNL1        0.0293
     20 C          62.8921   80.4586   11.3512 C.ar    1  UNL1        0.1401
     21 F          62.8201   79.5256   10.1789 F       1  UNL1       -0.2042
     22 C          62.4431   79.9967   12.7059 C.ar    1  UNL1        0.0293
     23 C          62.5151   80.9297   13.8783 C.ar    1  UNL1       -0.0015
     24 O          64.6237   93.4481   11.5742 O.3     1  UNL1       -0.4505
     25 N          69.5690   93.1733   10.0030 N.pl3   1  UNL1       -0.3421
     26 C          68.1561   93.6217    9.7736 C.ar    1  UNL1        0.1360
     27 N          67.8029   94.3810    8.5291 N.ar    1  UNL1       -0.2288
     28 C          66.3900   94.8293    8.2997 C.ar    1  UNL1        0.1035
     29 C          65.3303   94.5184    9.3147 C.ar    1  UNL1        0.0589
     30 C          65.6835   93.7591   10.5591 C.ar    1  UNL1        0.1572
     31 C          67.0964   93.3108   10.7886 C.ar    1  UNL1        0.1072
     32 H          70.2646   93.3774    9.3368 H       1  UNL1        0.1437
     33 H          69.8008   92.6750   10.8198 H       1  UNL1        0.1437
     34 C          67.4496   92.5514   12.0331 C.1     1  UNL1       -0.0560
     35 C          67.8027   91.7921   13.2776 C.1     1  UNL1       -0.0539
     36 C          68.1559   91.0328   14.5221 C.3     1  UNL1        0.2146
     37 O          68.5155   91.7735   15.7759 O.3     1  UNL1       -0.3697
     38 H          69.3455   92.2564   15.6394 H       1  UNL1        0.2117
@<TRIPOS>BOND
     1    25    26    1
     2    26    27   ar
     3    27    28   ar
     4    28    29   ar
     5    29    30   ar
     6    30    24    1
     7    24     1    1
     8     1     2   ar
     9     2     3   ar
    10     3     4   ar
    11     4     8    1
    12     8     9   am
    13     9    10    2
    14     9    11   am
    15    11    12   am
    16    12    13    2
    17    12    16    1
    18    16    17    1
    19    17    18   ar
    20    18    19   ar
    21    19    20   ar
    22    20    21    1
    23    20    22   ar
    24    22    23   ar
    25     4     5   ar
    26     5     6   ar
    27     6     7    1
    28    30    31   ar
    29    31    34    1
    30    34    35    3
    31    35    36    1
    32    36    37    1
    33    31    26   ar
    34     6     1   ar
    35    23    17   ar
    36    25    32    1
    37    25    33    1
    38     8    14    1
    39    11    15    1
    40    37    38    1
