@<TRIPOS>MOLECULE
*****
 16 17 0 0 0
SMALL
GASTEIGER

@<TRIPOS>ATOM
      1 C          63.1712   89.7624   12.5837 C.ar    1  UNL1        0.1386
      2 C          63.8387   89.2708   13.8338 C.ar    1  UNL1        0.0369
      3 C          64.9883   90.0350   14.4205 C.ar    1  UNL1        0.0047
      4 C          65.4704   91.2910   13.7571 C.ar    1  UNL1        0.0211
      5 C          64.8029   91.7826   12.5071 C.ar    1  UNL1        0.0047
      6 C          63.6533   91.0184   11.9204 C.ar    1  UNL1        0.0369
      7 C          66.6201   92.0553   14.3438 C.ar    1  UNL1        0.1231
      8 C          66.6260   92.7605   15.6677 C.ar    1  UNL1        0.0658
      9 C          67.9752   93.3896   15.8517 C.ar    1  UNL1        0.2138
     10 O          68.8032   93.0732   14.6416 O.2     1  UNL1       -0.3502
     11 N          67.9656   92.2486   13.7097 N.ar    1  UNL1       -0.0768
     12 O          62.0215   88.9981   11.9971 O.3     1  UNL1       -0.4755
     13 C          62.2774   87.7555   11.1969 C.3     1  UNL1        0.2054
     14 C          62.0319   87.7524    9.7172 C.3     1  UNL1        0.0473
     15 C          62.8309   85.5854    8.5271 C.3     1  UNL1        0.0001
     16 C          61.7177   86.4663    9.0117 C.3     1  UNL1        0.0038
@<TRIPOS>BOND
     1    15    16    1
     2    16    14    1
     3    14    13    1
     4    13    12    1
     5    12     1    1
     6     1     2   ar
     7     2     3   ar
     8     3     4   ar
     9     4     7    1
    10     7     8   ar
    11     8     9   ar
    12     9    10   ar
    13    10    11   ar
    14     4     5   ar
    15     5     6   ar
    16     6     1   ar
    17    11     7   ar
@<TRIPOS>MOLECULE
*****
 16 17 0 0 0
SMALL
GASTEIGER

@<TRIPOS>ATOM
      1 C          66.1605   93.3691   12.3791 C.ar    1  UNL1        0.1386
      2 C          65.1333   92.4647   11.7652 C.ar    1  UNL1        0.0369
      3 C          64.5004   91.3814   12.5873 C.ar    1  UNL1        0.0047
      4 C          64.8947   91.2025   14.0234 C.ar    1  UNL1        0.0211
      5 C          65.9218   92.1069   14.6374 C.ar    1  UNL1        0.0047
      6 C          66.5547   93.1902   13.8153 C.ar    1  UNL1        0.0369
      7 C          64.2617   90.1193   14.8456 C.ar    1  UNL1        0.1231
      8 C          63.5919   90.2992   16.1756 C.ar    1  UNL1        0.0658
      9 C          63.1037   88.9570   16.6341 C.ar    1  UNL1        0.2138
     10 O          63.4719   87.9475   15.5875 O.2     1  UNL1       -0.3502
     11 N          64.1876   88.6659   14.4821 N.ar    1  UNL1       -0.0768
     12 O          66.7934   94.4524   11.5570 O.3     1  UNL1       -0.4755
     13 C          66.5081   94.5420   10.0871 C.3     1  UNL1        0.2054
     14 C          67.6092   94.3149    9.0942 C.3     1  UNL1        0.0473
     15 C          68.1539   91.8271    9.6082 C.3     1  UNL1        0.0001
     16 C          68.6149   93.2262    9.3254 C.3     1  UNL1        0.0038
@<TRIPOS>BOND
     1    15    16    1
     2    16    14    1
     3    14    13    1
     4    13    12    1
     5    12     1    1
     6     1     2   ar
     7     2     3   ar
     8     3     4   ar
     9     4     7    1
    10     7     8   ar
    11     8     9   ar
    12     9    10   ar
    13    10    11   ar
    14     4     5   ar
    15     5     6   ar
    16     6     1   ar
    17    11     7   ar
@<TRIPOS>MOLECULE
*****
 16 17 0 0 0
SMALL
GASTEIGER

@<TRIPOS>ATOM
      1 C          63.5345   83.7508   10.7354 C.ar    1  UNL1        0.1386
      2 C          63.6466   84.1024    9.2815 C.ar    1  UNL1        0.0369
      3 C          62.8159   85.2143    8.7125 C.ar    1  UNL1        0.0047
      4 C          61.8732   85.9746    9.5974 C.ar    1  UNL1        0.0211
      5 C          61.7611   85.6230   11.0513 C.ar    1  UNL1        0.0047
      6 C          62.5918   84.5111   11.6203 C.ar    1  UNL1        0.0369
      7 C          61.0425   87.0865    9.0285 C.ar    1  UNL1        0.1231
      8 C          59.9786   86.9449    7.9806 C.ar    1  UNL1        0.0658
      9 C          59.4085   88.3061    7.7120 C.ar    1  UNL1        0.2138
     10 O          60.1200   89.2890    8.5939 O.2     1  UNL1       -0.3502
     11 N          61.1299   88.5352    9.4075 N.ar    1  UNL1       -0.0768
     12 O          64.3651   82.6389   11.3043 O.3     1  UNL1       -0.4755
     13 C          64.1824   82.2220   12.7335 C.3     1  UNL1        0.2054
     14 C          63.1338   81.2109   13.0916 C.3     1  UNL1        0.0473
     15 C          60.7808   80.7605   14.0969 C.3     1  UNL1        0.0001
     16 C          62.0416   81.5720   14.0543 C.3     1  UNL1        0.0038
@<TRIPOS>BOND
     1    15    16    1
     2    16    14    1
     3    14    13    1
     4    13    12    1
     5    12     1    1
     6     1     2   ar
     7     2     3   ar
     8     3     4   ar
     9     4     7    1
    10     7     8   ar
    11     8     9   ar
    12     9    10   ar
    13    10    11   ar
    14     4     5   ar
    15     5     6   ar
    16     6     1   ar
    17    11     7   ar
@<TRIPOS>MOLECULE
*****
 16 17 0 0 0
SMALL
GASTEIGER

@<TRIPOS>ATOM
      1 C          63.7001   83.7269   10.6605 C.ar    1  UNL1        0.1386
      2 C          62.7771   84.4817   11.5706 C.ar    1  UNL1        0.0369
      3 C          61.9099   85.5751   11.0204 C.ar    1  UNL1        0.0047
      4 C          61.9658   85.9136    9.5602 C.ar    1  UNL1        0.0211
      5 C          62.8888   85.1588    8.6502 C.ar    1  UNL1        0.0047
      6 C          63.7560   84.0654    9.2003 C.ar    1  UNL1        0.0369
      7 C          61.0987   87.0069    9.0101 C.ar    1  UNL1        0.1231
      8 C          61.0658   88.4294    9.4849 C.ar    1  UNL1        0.0658
      9 C          60.0590   89.1714    8.6568 C.ar    1  UNL1        0.2138
     10 O          59.4695   88.2075    7.6702 O.2     1  UNL1       -0.3502
     11 N          60.1121   86.8698    7.8885 N.ar    1  UNL1       -0.0768
     12 O          64.5673   82.6336   11.2107 O.3     1  UNL1       -0.4755
     13 C          64.3394   82.1246   12.6031 C.3     1  UNL1        0.2054
     14 C          63.1750   81.2239   12.8913 C.3     1  UNL1        0.0473
     15 C          60.9094   80.7901   14.0867 C.3     1  UNL1        0.0001
     16 C          62.0456   81.7099   13.7506 C.3     1  UNL1        0.0038
@<TRIPOS>BOND
     1    15    16    1
     2    16    14    1
     3    14    13    1
     4    13    12    1
     5    12     1    1
     6     1     2   ar
     7     2     3   ar
     8     3     4   ar
     9     4     7    1
    10     7     8   ar
    11     8     9   ar
    12     9    10   ar
    13    10    11   ar
    14     4     5   ar
    15     5     6   ar
    16     6     1   ar
    17    11     7   ar
@<TRIPOS>MOLECULE
*****
 16 17 0 0 0
SMALL
GASTEIGER

@<TRIPOS>ATOM
      1 C          63.3255   84.1779   11.1834 C.ar    1  UNL1        0.1386
      2 C          62.3195   85.0075   11.9248 C.ar    1  UNL1        0.0369
      3 C          61.4868   86.0135   11.1868 C.ar    1  UNL1        0.0047
      4 C          61.6602   86.1900    9.7074 C.ar    1  UNL1        0.0211
      5 C          62.6662   85.3605    8.9660 C.ar    1  UNL1        0.0047
      6 C          63.4989   84.3544    9.7040 C.ar    1  UNL1        0.0369
      7 C          60.8276   87.1960    8.9694 C.ar    1  UNL1        0.1231
      8 C          59.7938   86.8900    7.9265 C.ar    1  UNL1        0.0658
      9 C          59.2099   88.1896    7.4573 C.ar    1  UNL1        0.2138
     10 O          59.8828   89.2988    8.2101 O.2     1  UNL1       -0.3502
     11 N          60.8826   88.6847    9.1446 N.ar    1  UNL1       -0.0768
     12 O          64.1581   83.1719   11.9214 O.3     1  UNL1       -0.4755
     13 C          64.2727   83.2444   13.4152 C.3     1  UNL1        0.2054
     14 C          65.0253   84.3728   14.0558 C.3     1  UNL1        0.0473
     15 C          64.4744   86.8121   14.7602 C.3     1  UNL1        0.0001
     16 C          64.3102   85.3344   14.9582 C.3     1  UNL1        0.0038
@<TRIPOS>BOND
     1    15    16    1
     2    16    14    1
     3    14    13    1
     4    13    12    1
     5    12     1    1
     6     1     2   ar
     7     2     3   ar
     8     3     4   ar
     9     4     7    1
    10     7     8   ar
    11     8     9   ar
    12     9    10   ar
    13    10    11   ar
    14     4     5   ar
    15     5     6   ar
    16     6     1   ar
    17    11     7   ar
@<TRIPOS>MOLECULE
*****
 16 17 0 0 0
SMALL
GASTEIGER

@<TRIPOS>ATOM
      1 C          64.0838   91.1646   12.4129 C.ar    1  UNL1        0.1386
      2 C          63.6514   89.8228   12.9253 C.ar    1  UNL1        0.0369
      3 C          62.8588   88.9033   12.0442 C.ar    1  UNL1        0.0047
      4 C          62.4986   89.3256   10.6507 C.ar    1  UNL1        0.0211
      5 C          62.9311   90.6674   10.1383 C.ar    1  UNL1        0.0047
      6 C          63.7237   91.5869   11.0194 C.ar    1  UNL1        0.0369
      7 C          61.7060   88.4062    9.7696 C.ar    1  UNL1        0.1231
      8 C          62.0325   86.9730    9.4704 C.ar    1  UNL1        0.0658
      9 C          60.9760   86.4395    8.5489 C.ar    1  UNL1        0.2138
     10 O          59.9966   87.5430    8.2784 O.2     1  UNL1       -0.3502
     11 N          60.4477   88.7584    9.0329 N.ar    1  UNL1       -0.0768
     12 O          64.8765   92.0840   13.2940 O.3     1  UNL1       -0.4755
     13 C          65.7391   91.5197   14.3837 C.3     1  UNL1        0.2054
     14 C          67.2245   91.7248   14.3463 C.3     1  UNL1        0.0473
     15 C          68.4115   93.4851   15.8438 C.3     1  UNL1        0.0001
     16 C          67.9654   92.0733   15.6032 C.3     1  UNL1        0.0038
@<TRIPOS>BOND
     1    15    16    1
     2    16    14    1
     3    14    13    1
     4    13    12    1
     5    12     1    1
     6     1     2   ar
     7     2     3   ar
     8     3     4   ar
     9     4     7    1
    10     7     8   ar
    11     8     9   ar
    12     9    10   ar
    13    10    11   ar
    14     4     5   ar
    15     5     6   ar
    16     6     1   ar
    17    11     7   ar
@<TRIPOS>MOLECULE
*****
 16 17 0 0 0
SMALL
GASTEIGER

@<TRIPOS>ATOM
      1 C          62.7248   90.0802   11.8137 C.ar    1  UNL1        0.1386
      2 C          63.6795   90.5665   12.8635 C.ar    1  UNL1        0.0369
      3 C          64.7138   91.5962   12.5175 C.ar    1  UNL1        0.0047
      4 C          64.7935   92.1398   11.1217 C.ar    1  UNL1        0.0211
      5 C          63.8388   91.6535   10.0719 C.ar    1  UNL1        0.0047
      6 C          62.8044   90.6237   10.4179 C.ar    1  UNL1        0.0369
      7 C          65.8278   93.1695   10.7757 C.ar    1  UNL1        0.1231
      8 C          65.6060   94.6511   10.6997 C.ar    1  UNL1        0.0658
      9 C          66.9066   95.2958   10.3220 C.ar    1  UNL1        0.2138
     10 O          67.9323   94.2127   10.1645 O.2     1  UNL1       -0.3502
     11 N          67.2656   92.8986   10.4450 N.ar    1  UNL1       -0.0768
     12 O          61.6905   89.0504   12.1597 O.3     1  UNL1       -0.4755
     13 C          61.1291   88.1621   11.0893 C.3     1  UNL1        0.2054
     14 C          61.9312   87.0009   10.5813 C.3     1  UNL1        0.0473
     15 C          62.8137   85.6085    8.5732 C.3     1  UNL1        0.0001
     16 C          61.8419   86.6017    9.1381 C.3     1  UNL1        0.0038
@<TRIPOS>BOND
     1    15    16    1
     2    16    14    1
     3    14    13    1
     4    13    12    1
     5    12     1    1
     6     1     2   ar
     7     2     3   ar
     8     3     4   ar
     9     4     7    1
    10     7     8   ar
    11     8     9   ar
    12     9    10   ar
    13    10    11   ar
    14     4     5   ar
    15     5     6   ar
    16     6     1   ar
    17    11     7   ar
@<TRIPOS>MOLECULE
*****
 16 17 0 0 0
SMALL
GASTEIGER

@<TRIPOS>ATOM
      1 C          63.5326   87.1074   13.1054 C.ar    1  UNL1        0.1386
      2 C          64.1610   86.3676   14.2489 C.ar    1  UNL1        0.0369
      3 C          64.0219   84.8772   14.3449 C.ar    1  UNL1        0.0047
      4 C          63.2544   84.1265   13.2974 C.ar    1  UNL1        0.0211
      5 C          62.6260   84.8663   12.1538 C.ar    1  UNL1        0.0047
      6 C          62.7650   86.3567   12.0578 C.ar    1  UNL1        0.0369
      7 C          63.1154   82.6361   13.3934 C.ar    1  UNL1        0.1231
      8 C          62.5984   81.7277   12.3175 C.ar    1  UNL1        0.0658
      9 C          62.6323   80.3225   12.8413 C.ar    1  UNL1        0.2138
     10 O          63.1704   80.3624   14.2409 O.2     1  UNL1       -0.3502
     11 N          63.4689   81.7923   14.5821 N.ar    1  UNL1       -0.0768
     12 O          63.6716   88.5979   13.0094 O.3     1  UNL1       -0.4755
     13 C          64.3275   89.3630   14.1204 C.3     1  UNL1        0.2054
     14 C          63.5070   90.2589   15.0003 C.3     1  UNL1        0.0473
     15 C          63.0544   88.5855   16.9355 C.3     1  UNL1        0.0001
     16 C          63.3940   89.9697   16.4679 C.3     1  UNL1        0.0038
@<TRIPOS>BOND
     1    15    16    1
     2    16    14    1
     3    14    13    1
     4    13    12    1
     5    12     1    1
     6     1     2   ar
     7     2     3   ar
     8     3     4   ar
     9     4     7    1
    10     7     8   ar
    11     8     9   ar
    12     9    10   ar
    13    10    11   ar
    14     4     5   ar
    15     5     6   ar
    16     6     1   ar
    17    11     7   ar
@<TRIPOS>MOLECULE
*****
 16 17 0 0 0
SMALL
GASTEIGER

@<TRIPOS>ATOM
      1 C          63.9706   84.6905   14.1570 C.ar    1  UNL1        0.1386
      2 C          63.2830   85.1511   12.9061 C.ar    1  UNL1        0.0369
      3 C          63.2012   86.6154   12.5909 C.ar    1  UNL1        0.0047
      4 C          63.8072   87.6189   13.5266 C.ar    1  UNL1        0.0211
      5 C          64.4948   87.1583   14.7776 C.ar    1  UNL1        0.0047
      6 C          64.5765   85.6940   15.0927 C.ar    1  UNL1        0.0369
      7 C          63.7255   89.0832   13.2114 C.ar    1  UNL1        0.1231
      8 C          63.1618   89.6852   11.9585 C.ar    1  UNL1        0.0658
      9 C          63.2810   91.1766   12.0665 C.ar    1  UNL1        0.2138
     10 O          63.9184   91.4962   13.3862 O.2     1  UNL1       -0.3502
     11 N          64.1931   90.2024   14.0938 N.ar    1  UNL1       -0.0768
     12 O          64.0523   83.2262   14.4722 O.3     1  UNL1       -0.4755
     13 C          62.9750   82.2959   13.9990 C.3     1  UNL1        0.2054
     14 C          63.2454   81.3491   12.8675 C.3     1  UNL1        0.0473
     15 C          64.1325   82.4234   10.6746 C.3     1  UNL1        0.0001
     16 C          63.0176   81.7882   11.4514 C.3     1  UNL1        0.0038
@<TRIPOS>BOND
     1    15    16    1
     2    16    14    1
     3    14    13    1
     4    13    12    1
     5    12     1    1
     6     1     2   ar
     7     2     3   ar
     8     3     4   ar
     9     4     7    1
    10     7     8   ar
    11     8     9   ar
    12     9    10   ar
    13    10    11   ar
    14     4     5   ar
    15     5     6   ar
    16     6     1   ar
    17    11     7   ar
