@<TRIPOS>MOLECULE
*****
 28 30 0 0 0
SMALL
GASTEIGER

@<TRIPOS>ATOM
      1 C          64.5296   90.0973   13.9307 C.ar    1  UNL1        0.0045
      2 C          63.7721   90.4631   12.6888 C.ar    1  UNL1        0.0004
      3 C          64.2384   91.6047   11.8348 C.ar    1  UNL1        0.0076
      4 C          65.4621   92.3806   12.2227 C.ar    1  UNL1        0.0870
      5 C          66.2196   92.0148   13.4646 C.ar    1  UNL1        0.1427
      6 C          65.7533   90.8732   14.3186 C.ar    1  UNL1        0.0371
      7 C          63.6716   86.4092   15.1186 C.ar    1  UNL1        0.0219
      8 C          63.1309   86.6725   16.4927 C.ar    1  UNL1        0.0989
      9 N          63.0564   88.0774   17.0128 N.ar    1  UNL1       -0.2423
     10 C          63.5226   89.2190   16.1588 C.ar    1  UNL1        0.0988
     11 C          64.0634   88.9557   14.7847 C.ar    1  UNL1        0.0193
     12 C          64.1379   87.5508   14.2646 C.ar    1  UNL1        0.0032
     13 C          62.7161   85.4042   12.1645 C.3     1  UNL1        0.0518
     14 C          63.3070   84.5423   13.2405 C.ar    1  UNL1        0.0576
     15 C          63.7462   85.0042   14.5984 C.ar    1  UNL1        0.0356
     16 C          64.2730   83.8145   15.3447 C.ar    1  UNL1        0.1213
     17 N          64.1594   82.6173   14.4482 N.ar    1  UNL1       -0.1679
     18 N          63.5623   83.0671   13.1476 N.ar    1  UNL1       -0.2528
     19 C          63.2717   82.1949   11.9624 C.3     1  UNL1        0.1533
     20 C          65.9283   93.5222   11.3687 C.2     1  UNL1        0.2457
     21 N          66.0538   94.8964   11.9568 N.am    1  UNL1       -0.3252
     22 O          66.2690   93.2897    9.9266 O.2     1  UNL1       -0.2703
     23 H          65.8302   95.0490   12.9034 H       1  UNL1        0.1453
     24 H          66.3598   95.6456   11.3963 H       1  UNL1        0.1453
     25 O          67.4433   92.7907   13.8526 O.3     1  UNL1       -0.4790
     26 C          67.7220   93.0783   15.2981 C.3     1  UNL1        0.1661
     27 C          69.0563   93.6261   15.7101 C.3     1  UNL1        0.0472
     28 C          66.6665   92.8183   16.3316 C.3     1  UNL1        0.0472
@<TRIPOS>BOND
     1    13    14    1
     2    14    15   ar
     3    15     7    1
     4     7     8   ar
     5     8     9   ar
     6     9    10   ar
     7    10    11   ar
     8    11     1    1
     9     1     2   ar
    10     2     3   ar
    11     3     4   ar
    12     4    20    1
    13    20    21   am
    14    20    22    2
    15     4     5   ar
    16     5    25    1
    17    25    26    1
    18    26    27    1
    19    26    28    1
    20     5     6   ar
    21    11    12   ar
    22    15    16   ar
    23    16    17   ar
    24    17    18   ar
    25    18    19    1
    26    18    14   ar
    27    12     7   ar
    28     6     1   ar
    29    21    23    1
    30    21    24    1
@<TRIPOS>MOLECULE
*****
 28 30 0 0 0
SMALL
GASTEIGER

@<TRIPOS>ATOM
      1 C          63.9427   86.8300   14.6504 C.ar    1  UNL1        0.0045
      2 C          64.3250   85.7753   15.6462 C.ar    1  UNL1        0.0004
      3 C          64.3166   84.3293   15.2476 C.ar    1  UNL1        0.0076
      4 C          63.9260   83.9379   13.8533 C.ar    1  UNL1        0.0870
      5 C          63.5438   84.9925   12.8575 C.ar    1  UNL1        0.1427
      6 C          63.5521   86.4386   13.2561 C.ar    1  UNL1        0.0371
      7 C          64.6613   90.7325   14.5895 C.ar    1  UNL1        0.0219
      8 C          63.9678   91.1681   15.8461 C.ar    1  UNL1        0.0989
      9 N          63.2660   90.1577   16.7043 N.ar    1  UNL1       -0.2423
     10 C          63.2576   88.7116   16.3057 C.ar    1  UNL1        0.0988
     11 C          63.9511   88.2760   15.0490 C.ar    1  UNL1        0.0193
     12 C          64.6529   89.2865   14.1909 C.ar    1  UNL1        0.0032
     13 C          63.9522   91.4335   11.4821 C.3     1  UNL1        0.0518
     14 C          65.0372   92.0652   12.3030 C.ar    1  UNL1        0.0576
     15 C          65.3631   91.7430   13.7313 C.ar    1  UNL1        0.0356
     16 C          66.5141   92.6086   14.1507 C.ar    1  UNL1        0.1213
     17 N          66.8995   93.4658   12.9816 N.ar    1  UNL1       -0.1679
     18 N          65.9867   93.1299   11.8396 N.ar    1  UNL1       -0.2528
     19 C          66.0180   93.7499   10.4742 C.3     1  UNL1        0.1533
     20 C          63.9176   82.4918   13.4547 C.2     1  UNL1        0.2457
     21 N          64.6546   82.0483   12.2259 N.am    1  UNL1       -0.3252
     22 O          63.1723   81.4893   14.2850 O.2     1  UNL1       -0.2703
     23 H          65.1438   82.7062   11.6810 H       1  UNL1        0.1453
     24 H          64.6491   81.0992   11.9643 H       1  UNL1        0.1453
     25 O          63.1531   84.6011   11.4631 O.3     1  UNL1       -0.4790
     26 C          62.3575   85.5473   10.6136 C.3     1  UNL1        0.1661
     27 C          61.2152   86.3134   11.2124 C.3     1  UNL1        0.0472
     28 C          62.7040   85.7274    9.1654 C.3     1  UNL1        0.0472
@<TRIPOS>BOND
     1    13    14    1
     2    14    15   ar
     3    15     7    1
     4     7     8   ar
     5     8     9   ar
     6     9    10   ar
     7    10    11   ar
     8    11     1    1
     9     1     2   ar
    10     2     3   ar
    11     3     4   ar
    12     4    20    1
    13    20    21   am
    14    20    22    2
    15     4     5   ar
    16     5    25    1
    17    25    26    1
    18    26    27    1
    19    26    28    1
    20     5     6   ar
    21    11    12   ar
    22    15    16   ar
    23    16    17   ar
    24    17    18   ar
    25    18    19    1
    26    18    14   ar
    27    12     7   ar
    28     6     1   ar
    29    21    23    1
    30    21    24    1
@<TRIPOS>MOLECULE
*****
 28 30 0 0 0
SMALL
GASTEIGER

@<TRIPOS>ATOM
      1 C          63.7342   90.3997   12.2736 C.ar    1  UNL1        0.0045
      2 C          64.2549   90.3714   13.6800 C.ar    1  UNL1        0.0004
      3 C          65.2149   91.4257   14.1458 C.ar    1  UNL1        0.0076
      4 C          65.6541   92.5084   13.2051 C.ar    1  UNL1        0.0870
      5 C          65.1334   92.5367   11.7987 C.ar    1  UNL1        0.1427
      6 C          64.1734   91.4824   11.3330 C.ar    1  UNL1        0.0371
      7 C          62.1545   86.8400   11.5105 C.ar    1  UNL1        0.0219
      8 C          60.8544   87.2368   10.8763 C.ar    1  UNL1        0.0989
      9 N          60.5142   88.6880   10.7079 N.ar    1  UNL1       -0.2423
     10 C          61.4742   89.7423   11.1737 C.ar    1  UNL1        0.0988
     11 C          62.7743   89.3454   11.8079 C.ar    1  UNL1        0.0193
     12 C          63.1144   87.8943   11.9763 C.ar    1  UNL1        0.0032
     13 C          63.1514   84.8172    9.1517 C.3     1  UNL1        0.0518
     14 C          62.9529   84.4590   10.5947 C.ar    1  UNL1        0.0576
     15 C          62.4947   85.3887   11.6789 C.ar    1  UNL1        0.0356
     16 C          62.4364   84.6125   12.9612 C.ar    1  UNL1        0.1213
     17 N          62.8586   83.2031   12.6694 N.ar    1  UNL1       -0.1679
     18 N          63.1778   83.1082   11.2068 N.ar    1  UNL1       -0.2528
     19 C          63.6407   81.8784   10.4833 C.3     1  UNL1        0.1533
     20 C          66.6140   93.5627   13.6709 C.2     1  UNL1        0.2457
     21 N          67.8772   93.1678   14.3768 N.am    1  UNL1       -0.3252
     22 O          66.3108   95.0119   13.4308 O.2     1  UNL1       -0.2703
     23 H          68.0763   92.2166   14.5344 H       1  UNL1        0.1453
     24 H          68.5073   93.8598   14.6824 H       1  UNL1        0.1453
     25 O          65.5726   93.6194   10.8580 O.3     1  UNL1       -0.4790
     26 C          66.8495   93.4692   10.0854 C.3     1  UNL1        0.1661
     27 C          67.6575   92.2115   10.2092 C.3     1  UNL1        0.0472
     28 C          67.3184   94.5767    9.1890 C.3     1  UNL1        0.0472
@<TRIPOS>BOND
     1    13    14    1
     2    14    15   ar
     3    15     7    1
     4     7     8   ar
     5     8     9   ar
     6     9    10   ar
     7    10    11   ar
     8    11     1    1
     9     1     2   ar
    10     2     3   ar
    11     3     4   ar
    12     4    20    1
    13    20    21   am
    14    20    22    2
    15     4     5   ar
    16     5    25    1
    17    25    26    1
    18    26    27    1
    19    26    28    1
    20     5     6   ar
    21    11    12   ar
    22    15    16   ar
    23    16    17   ar
    24    17    18   ar
    25    18    19    1
    26    18    14   ar
    27    12     7   ar
    28     6     1   ar
    29    21    23    1
    30    21    24    1
@<TRIPOS>MOLECULE
*****
 28 30 0 0 0
SMALL
GASTEIGER

@<TRIPOS>ATOM
      1 C          63.3786   90.3895   12.0204 C.ar    1  UNL1        0.0045
      2 C          63.9487   90.1084   13.3790 C.ar    1  UNL1        0.0004
      3 C          65.0501   90.9692   13.9230 C.ar    1  UNL1        0.0076
      4 C          65.5813   92.1112   13.1084 C.ar    1  UNL1        0.0870
      5 C          65.0113   92.3923   11.7498 C.ar    1  UNL1        0.1427
      6 C          63.9099   91.5315   11.2058 C.ar    1  UNL1        0.0371
      7 C          61.4857   87.6023    9.9231 C.ar    1  UNL1        0.0219
      8 C          60.0745   87.8071   10.3883 C.ar    1  UNL1        0.0989
      9 N          59.7646   88.8726   11.3975 N.ar    1  UNL1       -0.2423
     10 C          60.8660   89.7334   11.9415 C.ar    1  UNL1        0.0988
     11 C          62.2772   89.5287   11.4763 C.ar    1  UNL1        0.0193
     12 C          62.5871   88.4632   10.4671 C.ar    1  UNL1        0.0032
     13 C          59.4848   86.5484    7.5704 C.3     1  UNL1        0.0518
     14 C          60.8759   86.0523    7.8324 C.ar    1  UNL1        0.0576
     15 C          61.7957   86.5367    8.9138 C.ar    1  UNL1        0.0356
     16 C          63.0797   85.7685    8.8088 C.ar    1  UNL1        0.1213
     17 N          62.9536   84.8093    7.6625 N.ar    1  UNL1       -0.1679
     18 N          61.5915   84.9847    7.0590 N.ar    1  UNL1       -0.2528
     19 C          61.0416   84.2258    5.8879 C.3     1  UNL1        0.1533
     20 C          66.6827   92.9720   13.6525 C.2     1  UNL1        0.2457
     21 N          68.0707   92.4190   13.7854 N.am    1  UNL1       -0.3252
     22 O          66.3961   94.3858   14.0635 O.2     1  UNL1       -0.2703
     23 H          68.2588   91.4911   13.5156 H       1  UNL1        0.1453
     24 H          68.7935   92.9840   14.1425 H       1  UNL1        0.1453
     25 O          65.5425   93.5343   10.9351 O.3     1  UNL1       -0.4790
     26 C          66.8120   93.3709   10.1530 C.3     1  UNL1        0.1661
     27 C          67.5649   92.0747   10.2074 C.3     1  UNL1        0.0472
     28 C          67.3287   94.5038    9.3166 C.3     1  UNL1        0.0472
@<TRIPOS>BOND
     1    13    14    1
     2    14    15   ar
     3    15     7    1
     4     7     8   ar
     5     8     9   ar
     6     9    10   ar
     7    10    11   ar
     8    11     1    1
     9     1     2   ar
    10     2     3   ar
    11     3     4   ar
    12     4    20    1
    13    20    21   am
    14    20    22    2
    15     4     5   ar
    16     5    25    1
    17    25    26    1
    18    26    27    1
    19    26    28    1
    20     5     6   ar
    21    11    12   ar
    22    15    16   ar
    23    16    17   ar
    24    17    18   ar
    25    18    19    1
    26    18    14   ar
    27    12     7   ar
    28     6     1   ar
    29    21    23    1
    30    21    24    1
@<TRIPOS>MOLECULE
*****
 28 30 0 0 0
SMALL
GASTEIGER

@<TRIPOS>ATOM
      1 C          63.7192   87.1258   13.5103 C.ar    1  UNL1        0.0045
      2 C          64.1379   86.5208   14.8174 C.ar    1  UNL1        0.0004
      3 C          64.0292   85.0396   15.0273 C.ar    1  UNL1        0.0076
      4 C          63.5018   84.1633   13.9301 C.ar    1  UNL1        0.0870
      5 C          63.0831   84.7683   12.6230 C.ar    1  UNL1        0.1427
      6 C          63.1918   86.2495   12.4131 C.ar    1  UNL1        0.0371
      7 C          64.8232   90.9088   13.9798 C.ar    1  UNL1        0.0219
      8 C          64.0453   91.5696   12.8806 C.ar    1  UNL1        0.0989
      9 N          63.1588   90.7491   11.9913 N.ar    1  UNL1       -0.2423
     10 C          63.0501   89.2679   12.2012 C.ar    1  UNL1        0.0988
     11 C          63.8279   88.6071   13.3004 C.ar    1  UNL1        0.0193
     12 C          64.7145   89.4275   14.1897 C.ar    1  UNL1        0.0032
     13 C          67.8716   91.8562   13.3020 C.3     1  UNL1        0.0518
     14 C          67.1110   92.1647   14.5576 C.ar    1  UNL1        0.0576
     15 C          65.7098   91.7292   14.8691 C.ar    1  UNL1        0.0356
     16 C          65.3509   92.2582   16.2261 C.ar    1  UNL1        0.1213
     17 N          66.5303   93.0206   16.7532 N.ar    1  UNL1       -0.1679
     18 N          67.6181   92.9628   15.7220 N.ar    1  UNL1       -0.2528
     19 C          68.9748   93.5926   15.8353 C.3     1  UNL1        0.1533
     20 C          63.3931   82.6820   14.1400 C.2     1  UNL1        0.2457
     21 N          62.3619   82.1314   15.0799 N.am    1  UNL1       -0.3252
     22 O          64.3155   81.7514   13.4100 O.2     1  UNL1       -0.2703
     23 H          61.7564   82.7422   15.5591 H       1  UNL1        0.1453
     24 H          62.2906   81.1592   15.2177 H       1  UNL1        0.1453
     25 O          62.5557   83.8920   11.5257 O.3     1  UNL1       -0.4790
     26 C          63.3525   83.7020   10.2691 C.3     1  UNL1        0.1661
     27 C          64.3261   82.5658   10.1629 C.3     1  UNL1        0.0472
     28 C          63.1758   84.6483    9.1187 C.3     1  UNL1        0.0472
@<TRIPOS>BOND
     1    13    14    1
     2    14    15   ar
     3    15     7    1
     4     7     8   ar
     5     8     9   ar
     6     9    10   ar
     7    10    11   ar
     8    11     1    1
     9     1     2   ar
    10     2     3   ar
    11     3     4   ar
    12     4    20    1
    13    20    21   am
    14    20    22    2
    15     4     5   ar
    16     5    25    1
    17    25    26    1
    18    26    27    1
    19    26    28    1
    20     5     6   ar
    21    11    12   ar
    22    15    16   ar
    23    16    17   ar
    24    17    18   ar
    25    18    19    1
    26    18    14   ar
    27    12     7   ar
    28     6     1   ar
    29    21    23    1
    30    21    24    1
@<TRIPOS>MOLECULE
*****
 28 30 0 0 0
SMALL
GASTEIGER

@<TRIPOS>ATOM
      1 C          63.4479   90.8099   11.4031 C.ar    1  UNL1        0.0045
      2 C          63.7924   91.5509   10.1453 C.ar    1  UNL1        0.0004
      3 C          64.7623   92.6943   10.1902 C.ar    1  UNL1        0.0076
      4 C          65.3877   93.0966   11.4928 C.ar    1  UNL1        0.0870
      5 C          65.0432   92.3555   12.7506 C.ar    1  UNL1        0.1427
      6 C          64.0733   91.2122   12.7058 C.ar    1  UNL1        0.0371
      7 C          62.0020   87.1145   11.4609 C.ar    1  UNL1        0.0219
      8 C          60.5382   87.3797   11.2685 C.ar    1  UNL1        0.0989
      9 N          60.0444   88.7884   11.1209 N.ar    1  UNL1       -0.2423
     10 C          61.0143   89.9318   11.1658 C.ar    1  UNL1        0.0988
     11 C          62.4780   89.6665   11.3582 C.ar    1  UNL1        0.0193
     12 C          62.9718   88.2579   11.5058 C.ar    1  UNL1        0.0032
     13 C          62.9736   85.1586    9.0360 C.3     1  UNL1        0.0518
     14 C          62.9425   84.8068   10.4938 C.ar    1  UNL1        0.0576
     15 C          62.4959   85.7058   11.6084 C.ar    1  UNL1        0.0356
     16 C          62.6299   84.9488   12.8965 C.ar    1  UNL1        0.1213
     17 N          63.1593   83.5820   12.5779 N.ar    1  UNL1       -0.1679
     18 N          63.3525   83.4942   11.0930 N.ar    1  UNL1       -0.2528
     19 C          63.8657   82.3030   10.3395 C.3     1  UNL1        0.1533
     20 C          66.3575   94.2400   11.5377 C.2     1  UNL1        0.2457
     21 N          66.1309   95.3789   12.4871 N.am    1  UNL1       -0.3252
     22 O          67.5541   94.2445   10.6332 O.2     1  UNL1       -0.2703
     23 H          65.3456   95.3760   13.0809 H       1  UNL1        0.1453
     24 H          66.7675   96.1293   12.5166 H       1  UNL1        0.1453
     25 O          65.6686   92.7578   14.0534 O.3     1  UNL1       -0.4790
     26 C          67.0264   92.2400   14.4251 C.3     1  UNL1        0.1661
     27 C          67.9368   91.6941   13.3652 C.3     1  UNL1        0.0472
     28 C          67.4738   92.2680   15.8565 C.3     1  UNL1        0.0472
@<TRIPOS>BOND
     1    13    14    1
     2    14    15   ar
     3    15     7    1
     4     7     8   ar
     5     8     9   ar
     6     9    10   ar
     7    10    11   ar
     8    11     1    1
     9     1     2   ar
    10     2     3   ar
    11     3     4   ar
    12     4    20    1
    13    20    21   am
    14    20    22    2
    15     4     5   ar
    16     5    25    1
    17    25    26    1
    18    26    27    1
    19    26    28    1
    20     5     6   ar
    21    11    12   ar
    22    15    16   ar
    23    16    17   ar
    24    17    18   ar
    25    18    19    1
    26    18    14   ar
    27    12     7   ar
    28     6     1   ar
    29    21    23    1
    30    21    24    1
@<TRIPOS>MOLECULE
*****
 28 30 0 0 0
SMALL
GASTEIGER

@<TRIPOS>ATOM
      1 C          62.4992   89.7970   10.6845 C.ar    1  UNL1        0.0045
      2 C          61.6669   90.3259    9.5543 C.ar    1  UNL1        0.0004
      3 C          60.7165   89.4167    8.8332 C.ar    1  UNL1        0.0076
      4 C          60.5983   87.9785    9.2424 C.ar    1  UNL1        0.0870
      5 C          61.4305   87.4495   10.3727 C.ar    1  UNL1        0.1427
      6 C          62.3810   88.3588   11.0937 C.ar    1  UNL1        0.0371
      7 C          65.3864   92.4371   11.3506 C.ar    1  UNL1        0.0219
      8 C          65.3505   92.5248   12.8476 C.ar    1  UNL1        0.0989
      9 N          64.3641   91.7032   13.6236 N.ar    1  UNL1       -0.2423
     10 C          63.4137   90.7940   12.9025 C.ar    1  UNL1        0.0988
     11 C          63.4496   90.7063   11.4055 C.ar    1  UNL1        0.0193
     12 C          64.4360   91.5278   10.6296 C.ar    1  UNL1        0.0032
     13 C          65.1029   95.6098   10.6414 C.3     1  UNL1        0.0518
     14 C          66.2424   94.7170   10.2486 C.ar    1  UNL1        0.0576
     15 C          66.3728   93.2586   10.5746 C.ar    1  UNL1        0.0356
     16 C          67.6626   92.7661    9.9884 C.ar    1  UNL1        0.1213
     17 N          68.3295   93.9201    9.3001 N.ar    1  UNL1       -0.1679
     18 N          67.4517   95.1258    9.4609 N.ar    1  UNL1       -0.2528
     19 C          67.7337   96.4991    8.9277 C.3     1  UNL1        0.1533
     20 C          59.6478   87.0692    8.5214 C.2     1  UNL1        0.2457
     21 N          60.1043   85.7141    8.0683 N.am    1  UNL1       -0.3252
     22 O          58.2409   87.5150    8.2535 O.2     1  UNL1       -0.2703
     23 H          61.0277   85.4215    8.2441 H       1  UNL1        0.1453
     24 H          59.4805   85.1173    7.5950 H       1  UNL1        0.1453
     25 O          61.3124   86.0112   10.7819 O.3     1  UNL1       -0.4790
     26 C          62.5068   85.1075   10.6999 C.3     1  UNL1        0.1661
     27 C          63.1696   84.8587    9.3774 C.3     1  UNL1        0.0472
     28 C          63.0385   84.4527   11.9403 C.3     1  UNL1        0.0472
@<TRIPOS>BOND
     1    13    14    1
     2    14    15   ar
     3    15     7    1
     4     7     8   ar
     5     8     9   ar
     6     9    10   ar
     7    10    11   ar
     8    11     1    1
     9     1     2   ar
    10     2     3   ar
    11     3     4   ar
    12     4    20    1
    13    20    21   am
    14    20    22    2
    15     4     5   ar
    16     5    25    1
    17    25    26    1
    18    26    27    1
    19    26    28    1
    20     5     6   ar
    21    11    12   ar
    22    15    16   ar
    23    16    17   ar
    24    17    18   ar
    25    18    19    1
    26    18    14   ar
    27    12     7   ar
    28     6     1   ar
    29    21    23    1
    30    21    24    1
@<TRIPOS>MOLECULE
*****
 28 30 0 0 0
SMALL
GASTEIGER

@<TRIPOS>ATOM
      1 C          64.2868   89.5510   14.2509 C.ar    1  UNL1        0.0045
      2 C          65.4425   90.4123   14.6659 C.ar    1  UNL1        0.0004
      3 C          65.8291   91.6000   13.8352 C.ar    1  UNL1        0.0076
      4 C          65.0600   91.9262   12.5894 C.ar    1  UNL1        0.0870
      5 C          63.9043   91.0649   12.1744 C.ar    1  UNL1        0.1427
      6 C          63.5176   89.8772   13.0051 C.ar    1  UNL1        0.0371
      7 C          63.5545   85.7993   15.3178 C.ar    1  UNL1        0.0219
      8 C          63.1269   85.9882   16.7431 C.ar    1  UNL1        0.0989
      9 N          63.0859   87.3647   17.3376 N.ar    1  UNL1       -0.2423
     10 C          63.4725   88.5523   16.5069 C.ar    1  UNL1        0.0988
     11 C          63.9001   88.3634   15.0816 C.ar    1  UNL1        0.0193
     12 C          63.9411   86.9869   14.4871 C.ar    1  UNL1        0.0032
     13 C          62.5800   84.9776   12.3137 C.3     1  UNL1        0.0518
     14 C          63.1476   84.0451   13.3424 C.ar    1  UNL1        0.0576
     15 C          63.5955   84.4227   14.7232 C.ar    1  UNL1        0.0356
     16 C          64.0917   83.1822   15.4050 C.ar    1  UNL1        0.1213
     17 N          63.9504   82.0379   14.4456 N.ar    1  UNL1       -0.1679
     18 N          63.3669   82.5712   13.1707 N.ar    1  UNL1       -0.2528
     19 C          63.0571   81.7710   11.9404 C.3     1  UNL1        0.1533
     20 C          65.4466   93.1138   11.7587 C.2     1  UNL1        0.2457
     21 N          65.1831   93.1140   10.2821 N.am    1  UNL1       -0.3252
     22 O          66.0967   94.3013   12.4046 O.2     1  UNL1       -0.2703
     23 H          64.7564   92.3346    9.8581 H       1  UNL1        0.1453
     24 H          65.4368   93.8935    9.7369 H       1  UNL1        0.1453
     25 O          63.1351   91.3911   10.9286 O.3     1  UNL1       -0.4790
     26 C          62.0357   90.4815   10.4661 C.3     1  UNL1        0.1661
     27 C          60.6093   90.7943   10.8089 C.3     1  UNL1        0.0472
     28 C          62.3627   89.2589    9.6608 C.3     1  UNL1        0.0472
@<TRIPOS>BOND
     1    13    14    1
     2    14    15   ar
     3    15     7    1
     4     7     8   ar
     5     8     9   ar
     6     9    10   ar
     7    10    11   ar
     8    11     1    1
     9     1     2   ar
    10     2     3   ar
    11     3     4   ar
    12     4    20    1
    13    20    21   am
    14    20    22    2
    15     4     5   ar
    16     5    25    1
    17    25    26    1
    18    26    27    1
    19    26    28    1
    20     5     6   ar
    21    11    12   ar
    22    15    16   ar
    23    16    17   ar
    24    17    18   ar
    25    18    19    1
    26    18    14   ar
    27    12     7   ar
    28     6     1   ar
    29    21    23    1
    30    21    24    1
@<TRIPOS>MOLECULE
*****
 28 30 0 0 0
SMALL
GASTEIGER

@<TRIPOS>ATOM
      1 C          62.1422   89.0741   10.9921 C.ar    1  UNL1        0.0045
      2 C          61.2594   90.1165   10.3726 C.ar    1  UNL1        0.0004
      3 C          60.2852   89.7325    9.2986 C.ar    1  UNL1        0.0076
      4 C          60.1939   88.3059    8.8441 C.ar    1  UNL1        0.0870
      5 C          61.0767   87.2635    9.4636 C.ar    1  UNL1        0.1427
      6 C          62.0509   87.6475   10.5376 C.ar    1  UNL1        0.0371
      7 C          64.7769   91.1749   13.0884 C.ar    1  UNL1        0.0219
      8 C          65.0648   90.2263   14.2141 C.ar    1  UNL1        0.0989
      9 N          64.3784   88.8936   14.2658 N.ar    1  UNL1       -0.2423
     10 C          63.4043   88.5095   13.1918 C.ar    1  UNL1        0.0988
     11 C          63.1164   89.4581   12.0661 C.ar    1  UNL1        0.0193
     12 C          63.8028   90.7909   12.0144 C.ar    1  UNL1        0.0032
     13 C          65.0679   93.0819   10.4562 C.3     1  UNL1        0.0518
     14 C          65.5970   93.3843   11.8268 C.ar    1  UNL1        0.0576
     15 C          65.4633   92.5078   13.0367 C.ar    1  UNL1        0.0356
     16 C          66.1364   93.1980   14.1858 C.ar    1  UNL1        0.1213
     17 N          66.6861   94.5011   13.6861 N.ar    1  UNL1       -0.1679
     18 N          66.3527   94.6163   12.2281 N.ar    1  UNL1       -0.2528
     19 C          66.7120   95.7621   11.3293 C.3     1  UNL1        0.1533
     20 C          59.2197   87.9218    7.7701 C.2     1  UNL1        0.2457
     21 N          58.5632   86.5735    7.8003 N.am    1  UNL1       -0.3252
     22 O          58.9021   88.8861    6.6659 O.2     1  UNL1       -0.2703
     23 H          58.7716   85.9407    8.5251 H       1  UNL1        0.1453
     24 H          57.9238   86.3215    7.0954 H       1  UNL1        0.1453
     25 O          60.9854   85.8368    9.0091 O.3     1  UNL1       -0.4790
     26 C          61.9839   85.2967    8.0287 C.3     1  UNL1        0.1661
     27 C          63.4151   85.1142    8.4393 C.3     1  UNL1        0.0472
     28 C          61.5512   84.9389    6.6378 C.3     1  UNL1        0.0472
@<TRIPOS>BOND
     1    13    14    1
     2    14    15   ar
     3    15     7    1
     4     7     8   ar
     5     8     9   ar
     6     9    10   ar
     7    10    11   ar
     8    11     1    1
     9     1     2   ar
    10     2     3   ar
    11     3     4   ar
    12     4    20    1
    13    20    21   am
    14    20    22    2
    15     4     5   ar
    16     5    25    1
    17    25    26    1
    18    26    27    1
    19    26    28    1
    20     5     6   ar
    21    11    12   ar
    22    15    16   ar
    23    16    17   ar
    24    17    18   ar
    25    18    19    1
    26    18    14   ar
    27    12     7   ar
    28     6     1   ar
    29    21    23    1
    30    21    24    1
