@<TRIPOS>MOLECULE
*****
 29 32 0 0 0
SMALL
GASTEIGER

@<TRIPOS>ATOM
      1 C          62.4320   90.2844   11.3310 C.3     1  UNL1        0.1025
      2 C          62.9114   90.9692   10.0856 C.3     1  UNL1        0.0259
      3 C          64.0612   91.9301   10.1533 C.3     1  UNL1        0.0450
      4 C          64.7316   92.2061   11.4665 C.ar    1  UNL1        0.0349
      5 C          65.8792   93.0969   11.8400 C.ar    1  UNL1       -0.0020
      6 C          66.1091   92.9626   13.3162 C.ar    1  UNL1        0.0317
      7 C          67.1041   93.6012   14.2392 C.ar    1  UNL1        0.0043
      8 C          67.0935   93.2660   15.7012 C.ar    1  UNL1        0.0208
      9 C          66.0879   92.2922   16.2401 C.ar    1  UNL1        0.1005
     10 N          65.0929   91.6535   15.3171 N.ar    1  UNL1       -0.2268
     11 C          65.1035   91.9888   13.8551 C.ar    1  UNL1        0.1433
     12 N          64.2522   91.5212   12.7120 N.ar    1  UNL1       -0.3152
     13 C          63.1024   90.5604   12.6442 C.3     1  UNL1        0.1247
     14 C          60.1470   89.4424   12.2366 C.3     1  UNL1        0.1149
     15 N          61.2821   89.3234   11.2633 N.3     1  UNL1       -0.1535
     16 S          61.2676   88.2436   10.2223 S.O2    1  UNL1        0.0633
     17 O          60.1759   88.9650    9.4890 O.2     1  UNL1       -0.1528
     18 O          62.3593   87.5221   10.9555 O.2     1  UNL1       -0.1528
     19 C          61.2531   87.1637    9.1813 C.ar    1  UNL1        0.1223
     20 C          62.4831   86.3405    8.9374 C.ar    1  UNL1        0.0222
     21 C          62.4687   85.2606    7.8964 C.ar    1  UNL1        0.0310
     22 C          61.2241   85.0040    7.0993 C.ar    1  UNL1        0.1402
     23 F          61.2096   83.9241    6.0583 F       1  UNL1       -0.2042
     24 C          59.9941   85.8272    7.3432 C.ar    1  UNL1        0.0310
     25 C          60.0086   86.9070    8.3841 C.ar    1  UNL1        0.0222
     26 C          66.6600   93.9689   10.9019 C.3     1  UNL1        0.0692
     27 C          67.6662   93.3580    9.9721 C.2     1  UNL1        0.0548
     28 O          67.8041   93.8757    8.5711 O.co2   1  UNL1       -0.5488
     29 O          68.5346   92.2294   10.4435 O.co2   1  UNL1       -0.5488
@<TRIPOS>UNITY_ATOM_ATTR
28 1
charge -1
@<TRIPOS>BOND
     1    14    15    1
     2     1    15    1
     3     1     2    1
     4     2     3    1
     5     3     4    1
     6     4     5   ar
     7     5    26    1
     8    26    27    1
     9    27    28   ar
    10    27    29   ar
    11     5     6   ar
    12     6     7   ar
    13     7     8   ar
    14     8     9   ar
    15     9    10   ar
    16    10    11   ar
    17    11    12   ar
    18    12    13    1
    19    15    16    1
    20    16    17    2
    21    16    18    2
    22    16    19    1
    23    19    20   ar
    24    20    21   ar
    25    21    22   ar
    26    22    23    1
    27    22    24   ar
    28    24    25   ar
    29    13     1    1
    30    25    19   ar
    31    12     4   ar
    32    11     6   ar
@<TRIPOS>MOLECULE
*****
 29 32 0 0 0
SMALL
GASTEIGER

@<TRIPOS>ATOM
      1 C          62.4473   89.5664   11.3260 C.3     1  UNL1        0.1025
      2 C          62.6450   90.3291   10.0496 C.3     1  UNL1        0.0259
      3 C          63.6026   91.4828   10.0060 C.3     1  UNL1        0.0450
      4 C          64.3625   91.8738   11.2388 C.ar    1  UNL1        0.0349
      5 C          65.3666   92.9577   11.4973 C.ar    1  UNL1       -0.0020
      6 C          65.7896   92.8648   12.9335 C.ar    1  UNL1        0.0317
      7 C          66.7551   93.6720   13.7497 C.ar    1  UNL1        0.0043
      8 C          66.9778   93.3380   15.1949 C.ar    1  UNL1        0.0208
      9 C          66.2349   92.1967   15.8239 C.ar    1  UNL1        0.1005
     10 N          65.2695   91.3895   15.0078 N.ar    1  UNL1       -0.2268
     11 C          65.0468   91.7235   13.5625 C.ar    1  UNL1        0.1433
     12 N          64.1648   91.1111   12.5151 N.ar    1  UNL1       -0.3152
     13 C          63.2072   89.9574   12.5588 C.3     1  UNL1        0.1247
     14 C          60.0343   88.6557   11.6394 C.3     1  UNL1        0.1149
     15 N          61.4896   88.4126   11.3696 N.3     1  UNL1       -0.1535
     16 S          61.9875   87.0158   11.1435 S.O2    1  UNL1        0.0633
     17 O          62.8378   87.1194   12.3748 O.2     1  UNL1       -0.1528
     18 O          61.1372   86.9122    9.9121 O.2     1  UNL1       -0.1528
     19 C          62.4854   85.6190   10.9173 C.ar    1  UNL1        0.1223
     20 C          62.9673   85.2055    9.5582 C.ar    1  UNL1        0.0222
     21 C          63.4652   83.8087    9.3320 C.ar    1  UNL1        0.0310
     22 C          63.4810   82.8256   10.4648 C.ar    1  UNL1        0.1402
     23 F          63.9789   81.4288   10.2385 F       1  UNL1       -0.2042
     24 C          62.9991   83.2391   11.8237 C.ar    1  UNL1        0.0310
     25 C          62.5013   84.6358   12.0499 C.ar    1  UNL1        0.0222
     26 C          65.8611   93.9587   10.4956 C.3     1  UNL1        0.0692
     27 C          67.1523   93.7191    9.7704 C.2     1  UNL1        0.0548
     28 O          68.1346   92.7165   10.2993 O.co2   1  UNL1       -0.5488
     29 O          67.4609   94.4822    8.5165 O.co2   1  UNL1       -0.5488
@<TRIPOS>UNITY_ATOM_ATTR
28 1
charge -1
@<TRIPOS>BOND
     1    14    15    1
     2     1    15    1
     3     1     2    1
     4     2     3    1
     5     3     4    1
     6     4     5   ar
     7     5    26    1
     8    26    27    1
     9    27    28   ar
    10    27    29   ar
    11     5     6   ar
    12     6     7   ar
    13     7     8   ar
    14     8     9   ar
    15     9    10   ar
    16    10    11   ar
    17    11    12   ar
    18    12    13    1
    19    15    16    1
    20    16    17    2
    21    16    18    2
    22    16    19    1
    23    19    20   ar
    24    20    21   ar
    25    21    22   ar
    26    22    23    1
    27    22    24   ar
    28    24    25   ar
    29    13     1    1
    30    25    19   ar
    31    12     4   ar
    32    11     6   ar
@<TRIPOS>MOLECULE
*****
 29 32 0 0 0
SMALL
GASTEIGER

@<TRIPOS>ATOM
      1 C          62.1243   89.7166   12.2910 C.3     1  UNL1        0.1025
      2 C          62.6674   89.2985   13.6253 C.3     1  UNL1        0.0259
      3 C          63.9201   89.9298   14.1564 C.3     1  UNL1        0.0450
      4 C          64.6298   90.9793   13.3532 C.ar    1  UNL1        0.0349
      5 C          65.8751   91.7729   13.6161 C.ar    1  UNL1       -0.0020
      6 C          66.1017   92.6816   12.4444 C.ar    1  UNL1        0.0317
      7 C          67.1717   93.6904   12.1488 C.ar    1  UNL1        0.0043
      8 C          67.1364   94.4671   10.8660 C.ar    1  UNL1        0.0208
      9 C          66.0311   94.2350    9.8789 C.ar    1  UNL1        0.1005
     10 N          64.9611   93.2262   10.1745 N.ar    1  UNL1       -0.2268
     11 C          64.9964   92.4495   11.4573 C.ar    1  UNL1        0.1433
     12 N          64.0867   91.3974   12.0190 N.ar    1  UNL1       -0.3152
     13 C          62.8340   90.7661   11.4879 C.3     1  UNL1        0.1247
     14 C          59.5443   89.4214   12.3727 C.3     1  UNL1        0.1149
     15 N          60.8715   89.0853   11.7598 N.3     1  UNL1       -0.1535
     16 S          60.9461   88.1180   10.6159 S.O2    1  UNL1        0.0633
     17 O          60.5045   89.1981    9.6735 O.2     1  UNL1       -0.1528
     18 O          61.3878   87.0377   11.5582 O.2     1  UNL1       -0.1528
     19 C          61.0208   87.1505    9.4719 C.ar    1  UNL1        0.1223
     20 C          62.2958   86.4090    9.1988 C.ar    1  UNL1        0.0222
     21 C          62.3704   85.4415    8.0549 C.ar    1  UNL1        0.0310
     22 C          61.1700   85.2157    7.1842 C.ar    1  UNL1        0.1402
     23 F          61.2447   84.2483    6.0402 F       1  UNL1       -0.2042
     24 C          59.8951   85.9573    7.4573 C.ar    1  UNL1        0.0310
     25 C          59.8205   86.9247    8.6012 C.ar    1  UNL1        0.0222
     26 C          66.7417   91.6752   14.8366 C.3     1  UNL1        0.0692
     27 C          66.6180   92.6966   15.9281 C.2     1  UNL1        0.0548
     28 O          67.6651   93.7595   16.0829 O.co2   1  UNL1       -0.5488
     29 O          65.4472   92.6552   16.8649 O.co2   1  UNL1       -0.5488
@<TRIPOS>UNITY_ATOM_ATTR
28 1
charge -1
@<TRIPOS>BOND
     1    14    15    1
     2     1    15    1
     3     1     2    1
     4     2     3    1
     5     3     4    1
     6     4     5   ar
     7     5    26    1
     8    26    27    1
     9    27    28   ar
    10    27    29   ar
    11     5     6   ar
    12     6     7   ar
    13     7     8   ar
    14     8     9   ar
    15     9    10   ar
    16    10    11   ar
    17    11    12   ar
    18    12    13    1
    19    15    16    1
    20    16    17    2
    21    16    18    2
    22    16    19    1
    23    19    20   ar
    24    20    21   ar
    25    21    22   ar
    26    22    23    1
    27    22    24   ar
    28    24    25   ar
    29    13     1    1
    30    25    19   ar
    31    12     4   ar
    32    11     6   ar
@<TRIPOS>MOLECULE
*****
 29 32 0 0 0
SMALL
GASTEIGER

@<TRIPOS>ATOM
      1 C          64.4719   89.9035   13.7487 C.3     1  UNL1        0.1025
      2 C          64.7821   88.7409   14.6443 C.3     1  UNL1        0.0259
      3 C          64.2642   87.3744   14.3060 C.3     1  UNL1        0.0450
      4 C          63.4362   87.1705   13.0720 C.ar    1  UNL1        0.0349
      5 C          62.7930   85.9489   12.4854 C.ar    1  UNL1       -0.0020
      6 C          62.0854   86.3565   11.2271 C.ar    1  UNL1        0.0317
      7 C          61.2802   85.5763   10.2307 C.ar    1  UNL1        0.0043
      8 C          60.6808   86.2695    9.0433 C.ar    1  UNL1        0.0208
      9 C          60.8866   87.7430    8.8523 C.ar    1  UNL1        0.1005
     10 N          61.6918   88.5232    9.8487 N.ar    1  UNL1       -0.2268
     11 C          62.2911   87.8300   11.0361 C.ar    1  UNL1        0.1433
     12 N          63.1260   88.3330   12.1763 N.ar    1  UNL1       -0.3152
     13 C          63.6438   89.6995   12.5146 C.3     1  UNL1        0.1247
     14 C          64.9169   91.7714   15.4989 C.3     1  UNL1        0.1149
     15 N          64.9897   91.2700   14.0870 N.3     1  UNL1       -0.1535
     16 S          65.5804   92.1352   13.0133 S.O2    1  UNL1        0.0633
     17 O          66.9554   91.8520   13.5415 O.2     1  UNL1       -0.1528
     18 O          64.2053   92.4183   12.4852 O.2     1  UNL1       -0.1528
     19 C          66.1709   93.0003   11.9396 C.ar    1  UNL1        0.1223
     20 C          66.0751   94.4938   12.0426 C.ar    1  UNL1        0.0222
     21 C          66.6657   95.3589   10.9689 C.ar    1  UNL1        0.0310
     22 C          67.3520   94.7306    9.7923 C.ar    1  UNL1        0.1402
     23 F          67.9425   95.5957    8.7186 F       1  UNL1       -0.2042
     24 C          67.4477   93.2372    9.6895 C.ar    1  UNL1        0.0310
     25 C          66.8572   92.3721   10.7631 C.ar    1  UNL1        0.0222
     26 C          62.8479   84.5630   13.0566 C.3     1  UNL1        0.0692
     27 C          62.8448   84.3640   14.5435 C.2     1  UNL1        0.0548
     28 O          61.6784   84.8346   15.3607 O.co2   1  UNL1       -0.5488
     29 O          64.0082   83.6944   15.2129 O.co2   1  UNL1       -0.5488
@<TRIPOS>UNITY_ATOM_ATTR
28 1
charge -1
@<TRIPOS>BOND
     1    14    15    1
     2     1    15    1
     3     1     2    1
     4     2     3    1
     5     3     4    1
     6     4     5   ar
     7     5    26    1
     8    26    27    1
     9    27    28   ar
    10    27    29   ar
    11     5     6   ar
    12     6     7   ar
    13     7     8   ar
    14     8     9   ar
    15     9    10   ar
    16    10    11   ar
    17    11    12   ar
    18    12    13    1
    19    15    16    1
    20    16    17    2
    21    16    18    2
    22    16    19    1
    23    19    20   ar
    24    20    21   ar
    25    21    22   ar
    26    22    23    1
    27    22    24   ar
    28    24    25   ar
    29    13     1    1
    30    25    19   ar
    31    12     4   ar
    32    11     6   ar
@<TRIPOS>MOLECULE
*****
 29 32 0 0 0
SMALL
GASTEIGER

@<TRIPOS>ATOM
      1 C          63.3438   85.8926   13.0384 C.3     1  UNL1        0.1025
      2 C          63.8815   87.2054   13.5256 C.3     1  UNL1        0.0259
      3 C          63.4960   88.4779   12.8314 C.3     1  UNL1        0.0450
      4 C          62.5728   88.4376   11.6498 C.ar    1  UNL1        0.0349
      5 C          62.0203   89.5199   10.7704 C.ar    1  UNL1       -0.0020
      6 C          61.1411   88.8760    9.7396 C.ar    1  UNL1        0.0317
      7 C          60.3335   89.4463    8.6116 C.ar    1  UNL1        0.0043
      8 C          59.5350   88.5364    7.7260 C.ar    1  UNL1        0.0208
      9 C          59.5441   87.0561    7.9684 C.ar    1  UNL1        0.1005
     10 N          60.3518   86.4858    9.0963 N.ar    1  UNL1       -0.2268
     11 C          61.1503   87.3957    9.9820 C.ar    1  UNL1        0.1433
     12 N          62.0351   87.1248   11.1625 N.ar    1  UNL1       -0.3152
     13 C          62.4206   85.8523   11.8568 C.3     1  UNL1        0.1247
     14 C          64.3642   84.6692   15.0908 C.3     1  UNL1        0.1149
     15 N          63.7294   84.6200   13.7326 N.3     1  UNL1       -0.1535
     16 S          63.4801   83.2982   13.0686 S.O2    1  UNL1        0.0633
     17 O          64.6554   83.5299   12.1660 O.2     1  UNL1       -0.1528
     18 O          62.3047   83.0665   13.9713 O.2     1  UNL1       -0.1528
     19 C          63.2307   81.9765   12.4046 C.ar    1  UNL1        0.1223
     20 C          62.7876   80.7988   13.2212 C.ar    1  UNL1        0.0222
     21 C          62.5382   79.4770   12.5572 C.ar    1  UNL1        0.0310
     22 C          62.7319   79.3331   11.0768 C.ar    1  UNL1        0.1402
     23 F          62.4825   78.0114   10.4128 F       1  UNL1       -0.2042
     24 C          63.1750   80.5108   10.2603 C.ar    1  UNL1        0.0310
     25 C          63.4244   81.8325   10.9242 C.ar    1  UNL1        0.0222
     26 C          62.2981   90.9883   10.8991 C.3     1  UNL1        0.0692
     27 C          63.6090   91.4575   11.4573 C.2     1  UNL1        0.0548
     28 O          63.7754   91.6287   12.9381 O.co2   1  UNL1       -0.5488
     29 O          64.7535   91.7554   10.5345 O.co2   1  UNL1       -0.5488
@<TRIPOS>UNITY_ATOM_ATTR
28 1
charge -1
@<TRIPOS>BOND
     1    14    15    1
     2     1    15    1
     3     1     2    1
     4     2     3    1
     5     3     4    1
     6     4     5   ar
     7     5    26    1
     8    26    27    1
     9    27    28   ar
    10    27    29   ar
    11     5     6   ar
    12     6     7   ar
    13     7     8   ar
    14     8     9   ar
    15     9    10   ar
    16    10    11   ar
    17    11    12   ar
    18    12    13    1
    19    15    16    1
    20    16    17    2
    21    16    18    2
    22    16    19    1
    23    19    20   ar
    24    20    21   ar
    25    21    22   ar
    26    22    23    1
    27    22    24   ar
    28    24    25   ar
    29    13     1    1
    30    25    19   ar
    31    12     4   ar
    32    11     6   ar
@<TRIPOS>MOLECULE
*****
 29 32 0 0 0
SMALL
GASTEIGER

@<TRIPOS>ATOM
      1 C          64.0051   89.7744   13.0709 C.3     1  UNL1        0.1025
      2 C          63.1659   89.8394   11.8294 C.3     1  UNL1        0.0259
      3 C          62.5535   88.5888   11.2718 C.3     1  UNL1        0.0450
      4 C          62.7803   87.2732   11.9558 C.ar    1  UNL1        0.0349
      5 C          62.3092   85.8842   11.6415 C.ar    1  UNL1       -0.0020
      6 C          62.8572   84.9607   12.6889 C.ar    1  UNL1        0.0317
      7 C          62.7235   83.4805   12.8912 C.ar    1  UNL1        0.0043
      8 C          63.3996   82.8186   14.0551 C.ar    1  UNL1        0.0208
      9 C          64.2094   83.6369   15.0167 C.ar    1  UNL1        0.1005
     10 N          64.3431   85.1171   14.8143 N.ar    1  UNL1       -0.2268
     11 C          63.6671   85.7790   13.6504 C.ar    1  UNL1        0.1433
     12 N          63.6195   87.2082   13.1973 N.ar    1  UNL1       -0.3152
     13 C          64.2319   88.4588   13.7549 C.3     1  UNL1        0.1247
     14 C          64.5648   91.2928   15.1035 C.3     1  UNL1        0.1149
     15 N          64.6176   91.0250   13.6286 N.3     1  UNL1       -0.1535
     16 S          65.2828   92.0078   12.7111 S.O2    1  UNL1        0.0633
     17 O          63.9467   92.3779   12.1387 O.2     1  UNL1       -0.1528
     18 O          66.6190   91.6376   13.2836 O.2     1  UNL1       -0.1528
     19 C          65.9481   92.9905   11.7937 C.ar    1  UNL1        0.1223
     20 C          65.9153   94.4558   12.1132 C.ar    1  UNL1        0.0222
     21 C          66.5806   95.4385   11.1958 C.ar    1  UNL1        0.0310
     22 C          67.2786   94.9559    9.9589 C.ar    1  UNL1        0.1402
     23 F          67.9439   95.9387    9.0415 F       1  UNL1       -0.2042
     24 C          67.3114   93.4907    9.6395 C.ar    1  UNL1        0.0310
     25 C          66.6462   92.5080   10.5568 C.ar    1  UNL1        0.0222
     26 C          61.4423   85.4881   10.4833 C.3     1  UNL1        0.0692
     27 C          61.7919   85.9391    9.0960 C.2     1  UNL1        0.0548
     28 O          60.8215   86.7707    8.3107 O.co2   1  UNL1       -0.5488
     29 O          63.1121   85.5585    8.4940 O.co2   1  UNL1       -0.5488
@<TRIPOS>UNITY_ATOM_ATTR
28 1
charge -1
@<TRIPOS>BOND
     1    14    15    1
     2     1    15    1
     3     1     2    1
     4     2     3    1
     5     3     4    1
     6     4     5   ar
     7     5    26    1
     8    26    27    1
     9    27    28   ar
    10    27    29   ar
    11     5     6   ar
    12     6     7   ar
    13     7     8   ar
    14     8     9   ar
    15     9    10   ar
    16    10    11   ar
    17    11    12   ar
    18    12    13    1
    19    15    16    1
    20    16    17    2
    21    16    18    2
    22    16    19    1
    23    19    20   ar
    24    20    21   ar
    25    21    22   ar
    26    22    23    1
    27    22    24   ar
    28    24    25   ar
    29    13     1    1
    30    25    19   ar
    31    12     4   ar
    32    11     6   ar
@<TRIPOS>MOLECULE
*****
 29 32 0 0 0
SMALL
GASTEIGER

@<TRIPOS>ATOM
      1 C          63.8124   85.6247   14.0929 C.3     1  UNL1        0.1025
      2 C          64.5492   86.6763   14.8684 C.3     1  UNL1        0.0259
      3 C          64.4930   88.1094   14.4290 C.3     1  UNL1        0.0450
      4 C          63.7000   88.4909   13.2142 C.ar    1  UNL1        0.0349
      5 C          63.4614   89.8123   12.5456 C.ar    1  UNL1       -0.0020
      6 C          62.5771   89.5773   11.3569 C.ar    1  UNL1        0.0317
      7 C          62.0125   90.5093   10.3261 C.ar    1  UNL1        0.0043
      8 C          61.1401   89.9748    9.2294 C.ar    1  UNL1        0.0208
      9 C          60.8322   88.5082    9.1634 C.ar    1  UNL1        0.1005
     10 N          61.3968   87.5762   10.1942 N.ar    1  UNL1       -0.2268
     11 C          62.2692   88.1107   11.2909 C.ar    1  UNL1        0.1433
     12 N          62.9632   87.4393   12.4388 N.ar    1  UNL1       -0.3152
     13 C          63.0194   86.0062   12.8782 C.3     1  UNL1        0.1247
     14 C          64.1832   83.8566   15.9601 C.3     1  UNL1        0.1149
     15 N          63.8686   84.1915   14.5323 N.3     1  UNL1       -0.1535
     16 S          63.6101   83.0935   13.5436 S.O2    1  UNL1        0.0633
     17 O          64.9063   83.4065   12.8569 O.2     1  UNL1       -0.1528
     18 O          62.3138   82.7804   14.2304 O.2     1  UNL1       -0.1528
     19 C          63.3516   81.9954   12.5550 C.ar    1  UNL1        0.1223
     20 C          63.5835   82.2332   11.0922 C.ar    1  UNL1        0.0222
     21 C          63.3249   81.1351   10.1035 C.ar    1  UNL1        0.0310
     22 C          62.8345   79.7992   10.5778 C.ar    1  UNL1        0.1402
     23 F          62.5759   78.7011    9.5892 F       1  UNL1       -0.2042
     24 C          62.6026   79.5614   12.0406 C.ar    1  UNL1        0.0310
     25 C          62.8611   80.6594   13.0291 C.ar    1  UNL1        0.0222
     26 C          64.0106   91.1362   12.9879 C.3     1  UNL1        0.0692
     27 C          64.5517   91.2972   14.3777 C.2     1  UNL1        0.0548
     28 O          66.0338   91.3287   14.6066 O.co2   1  UNL1       -0.5488
     29 O          63.6106   91.4266   15.5386 O.co2   1  UNL1       -0.5488
@<TRIPOS>UNITY_ATOM_ATTR
28 1
charge -1
@<TRIPOS>BOND
     1    14    15    1
     2     1    15    1
     3     1     2    1
     4     2     3    1
     5     3     4    1
     6     4     5   ar
     7     5    26    1
     8    26    27    1
     9    27    28   ar
    10    27    29   ar
    11     5     6   ar
    12     6     7   ar
    13     7     8   ar
    14     8     9   ar
    15     9    10   ar
    16    10    11   ar
    17    11    12   ar
    18    12    13    1
    19    15    16    1
    20    16    17    2
    21    16    18    2
    22    16    19    1
    23    19    20   ar
    24    20    21   ar
    25    21    22   ar
    26    22    23    1
    27    22    24   ar
    28    24    25   ar
    29    13     1    1
    30    25    19   ar
    31    12     4   ar
    32    11     6   ar
@<TRIPOS>MOLECULE
*****
 29 32 0 0 0
SMALL
GASTEIGER

@<TRIPOS>ATOM
      1 C          62.9243   89.1689   12.2096 C.3     1  UNL1        0.1025
      2 C          63.4687   88.8749   13.5761 C.3     1  UNL1        0.0259
      3 C          64.4517   89.8141   14.2097 C.3     1  UNL1        0.0450
      4 C          64.8904   91.0472   13.4769 C.ar    1  UNL1        0.0349
      5 C          65.8393   92.1492   13.8447 C.ar    1  UNL1       -0.0020
      6 C          65.8813   93.1242   12.7055 C.ar    1  UNL1        0.0317
      7 C          66.6408   94.4022   12.5058 C.ar    1  UNL1        0.0043
      8 C          66.4773   95.1808   11.2342 C.ar    1  UNL1        0.0208
      9 C          65.5544   94.6814   10.1623 C.ar    1  UNL1        0.1005
     10 N          64.7950   93.4034   10.3621 N.ar    1  UNL1       -0.2268
     11 C          64.9585   92.6248   11.6337 C.ar    1  UNL1        0.1433
     12 N          64.3460   91.3412   12.1104 N.ar    1  UNL1       -0.3152
     13 C          63.3630   90.4020   11.4768 C.3     1  UNL1        0.1247
     14 C          60.5653   88.7108   11.2220 C.3     1  UNL1        0.1149
     15 N          61.9412   88.2296   11.5759 N.3     1  UNL1       -0.1535
     16 S          62.3342   86.8093   11.2962 S.O2    1  UNL1        0.0633
     17 O          62.9553   86.7129   12.6580 O.2     1  UNL1       -0.1528
     18 O          61.7131   86.9058    9.9342 O.2     1  UNL1       -0.1528
     19 C          62.7272   85.3890   11.0164 C.ar    1  UNL1        0.1223
     20 C          62.6554   84.3621   12.1075 C.ar    1  UNL1        0.0222
     21 C          63.0484   82.9418   11.8277 C.ar    1  UNL1        0.0310
     22 C          63.5131   82.5484   10.4568 C.ar    1  UNL1        0.1402
     23 F          63.9061   81.1281   10.1770 F       1  UNL1       -0.2042
     24 C          63.5849   83.5753    9.3658 C.ar    1  UNL1        0.0310
     25 C          63.1920   84.9955    9.6455 C.ar    1  UNL1        0.0222
     26 C          66.6107   92.2573   15.1266 C.3     1  UNL1        0.0692
     27 C          68.1105   92.2533   15.1020 C.2     1  UNL1        0.0548
     28 O          68.8820   92.3826   16.3819 O.co2   1  UNL1       -0.5488
     29 O          68.8389   92.1201   13.7975 O.co2   1  UNL1       -0.5488
@<TRIPOS>UNITY_ATOM_ATTR
28 1
charge -1
@<TRIPOS>BOND
     1    14    15    1
     2     1    15    1
     3     1     2    1
     4     2     3    1
     5     3     4    1
     6     4     5   ar
     7     5    26    1
     8    26    27    1
     9    27    28   ar
    10    27    29   ar
    11     5     6   ar
    12     6     7   ar
    13     7     8   ar
    14     8     9   ar
    15     9    10   ar
    16    10    11   ar
    17    11    12   ar
    18    12    13    1
    19    15    16    1
    20    16    17    2
    21    16    18    2
    22    16    19    1
    23    19    20   ar
    24    20    21   ar
    25    21    22   ar
    26    22    23    1
    27    22    24   ar
    28    24    25   ar
    29    13     1    1
    30    25    19   ar
    31    12     4   ar
    32    11     6   ar
@<TRIPOS>MOLECULE
*****
 29 32 0 0 0
SMALL
GASTEIGER

@<TRIPOS>ATOM
      1 C          63.2523   85.8903   13.3453 C.3     1  UNL1        0.1025
      2 C          62.3964   85.9702   12.1161 C.3     1  UNL1        0.0259
      3 C          62.2550   87.2718   11.3840 C.3     1  UNL1        0.0450
      4 C          62.9695   88.4934   11.8811 C.ar    1  UNL1        0.0349
      5 C          63.0198   89.9035   11.3723 C.ar    1  UNL1       -0.0020
      6 C          63.9067   90.6951   12.2870 C.ar    1  UNL1        0.0317
      7 C          64.3253   92.1355   12.2805 C.ar    1  UNL1        0.0043
      8 C          65.2418   92.6550   13.3482 C.ar    1  UNL1        0.0208
      9 C          65.7398   91.7340   14.4225 C.ar    1  UNL1        0.1005
     10 N          65.3212   90.2937   14.4289 N.ar    1  UNL1       -0.2268
     11 C          64.4047   89.7742   13.3612 C.ar    1  UNL1        0.1433
     12 N          63.8255   88.4135   13.1103 N.ar    1  UNL1       -0.3152
     13 C          63.9669   87.1120   13.8425 C.3     1  UNL1        0.1247
     14 C          63.6928   84.5837   15.5474 C.3     1  UNL1        0.1149
     15 N          63.3937   84.5887   14.0775 N.3     1  UNL1       -0.1535
     16 S          63.2361   83.2923   13.3397 S.O2    1  UNL1        0.0633
     17 O          64.4558   83.6072   12.5256 O.2     1  UNL1       -0.1528
     18 O          62.0162   82.9774   14.1538 O.2     1  UNL1       -0.1528
     19 C          63.0783   81.9958   12.6019 C.ar    1  UNL1        0.1223
     20 C          63.3325   81.9378   11.1247 C.ar    1  UNL1        0.0222
     21 C          63.1748   80.6413   10.3869 C.ar    1  UNL1        0.0310
     22 C          62.7627   79.4030   11.1263 C.ar    1  UNL1        0.1402
     23 F          62.6050   78.1065   10.3885 F       1  UNL1       -0.2042
     24 C          62.5085   79.4611   12.6035 C.ar    1  UNL1        0.0310
     25 C          62.6663   80.7575   13.3412 C.ar    1  UNL1        0.0222
     26 C          62.3080   90.4297   10.1613 C.3     1  UNL1        0.0692
     27 C          60.8677   90.0815    9.9275 C.2     1  UNL1        0.0548
     28 O          59.7950   90.7394   10.7438 O.co2   1  UNL1       -0.5488
     29 O          60.5003   89.0755    8.8773 O.co2   1  UNL1       -0.5488
@<TRIPOS>UNITY_ATOM_ATTR
28 1
charge -1
@<TRIPOS>BOND
     1    14    15    1
     2     1    15    1
     3     1     2    1
     4     2     3    1
     5     3     4    1
     6     4     5   ar
     7     5    26    1
     8    26    27    1
     9    27    28   ar
    10    27    29   ar
    11     5     6   ar
    12     6     7   ar
    13     7     8   ar
    14     8     9   ar
    15     9    10   ar
    16    10    11   ar
    17    11    12   ar
    18    12    13    1
    19    15    16    1
    20    16    17    2
    21    16    18    2
    22    16    19    1
    23    19    20   ar
    24    20    21   ar
    25    21    22   ar
    26    22    23    1
    27    22    24   ar
    28    24    25   ar
    29    13     1    1
    30    25    19   ar
    31    12     4   ar
    32    11     6   ar
