@<TRIPOS>MOLECULE
*****
 45 48 0 0 0
SMALL
GASTEIGER

@<TRIPOS>ATOM
      1 C          62.5703   87.2120   11.6828 C.ar    1  UNL1        0.0736
      2 C          63.0802   85.8055   11.7910 C.ar    1  UNL1        0.0847
      3 N          63.9880   85.4217   12.9217 N.ar    1  UNL1       -0.2755
      4 C          64.3859   86.4444   13.9443 C.ar    1  UNL1        0.3341
      5 O          65.2937   86.0606   15.0751 O.2     1  UNL1       -0.2462
      6 N          63.8760   87.8509   13.8362 N.ar    1  UNL1       -0.2470
      7 C          62.9682   88.2347   12.7054 C.ar    1  UNL1        0.2657
      8 O          62.4584   89.6413   12.5973 O.2     1  UNL1       -0.2668
      9 C          59.8469   88.3635    8.2906 C.ar    1  UNL1        0.0213
     10 C          60.5934   89.4229    9.0458 C.ar    1  UNL1       -0.0007
     11 C          61.5012   89.0391   10.1766 C.ar    1  UNL1       -0.0000
     12 C          61.6625   87.5959   10.5521 C.ar    1  UNL1        0.0060
     13 C          60.9160   86.5365    9.7968 C.ar    1  UNL1       -0.0000
     14 C          60.0082   86.9203    8.6661 C.ar    1  UNL1       -0.0007
     15 C          58.9391   88.7473    7.1598 C.3     1  UNL1        0.2351
     16 O          59.4425   89.6383    6.0632 O.3     1  UNL1       -0.4425
     17 C          58.5791   90.7495    5.5438 C.2     1  UNL1        0.3334
     18 O          57.0867   90.6574    5.6619 O.2     1  UNL1       -0.2485
     19 N          58.9106   92.2843    3.4738 N.3     1  UNL1       -0.3119
     20 C          59.2083   91.9527    4.9061 C.3     1  UNL1        0.1764
     21 H          59.4191   93.1274    3.2073 H       1  UNL1        0.1193
     22 H          57.9090   92.4417    3.3623 H       1  UNL1        0.1193
     23 C          64.4979   84.0151   13.0298 C.3     1  UNL1        0.1394
     24 C          63.5314   82.8738   13.1451 C.ar    1  UNL1        0.0319
     25 C          63.4724   81.8295   12.0700 C.ar    1  UNL1        0.1379
     26 F          64.3798   81.9264   10.8796 F       1  UNL1       -0.2044
     27 C          62.5059   80.6881   12.1854 C.ar    1  UNL1        0.0294
     28 C          61.5984   80.5912   13.3757 C.ar    1  UNL1        0.0022
     29 C          61.6574   81.6355   14.4509 C.ar    1  UNL1        0.0037
     30 C          62.6239   82.7768   14.3356 C.ar    1  UNL1        0.0714
     31 C          62.6829   83.8212   15.4107 C.3     1  UNL1        0.4184
     32 F          62.7419   84.8655   16.4858 F       1  UNL1       -0.1659
     33 F          63.9764   83.2421   15.9022 F       1  UNL1       -0.1659
     34 F          61.3894   84.4002   14.9192 F       1  UNL1       -0.1659
     35 C          64.2740   88.8737   14.8588 C.3     1  UNL1        0.1334
     36 C          64.1174   90.3349   14.5584 C.3     1  UNL1        0.0968
     37 N          62.8749   91.0592   14.9844 N.3     1  UNL1       -0.3172
     38 H          62.9373   92.0371   14.7009 H       1  UNL1        0.1192
     39 H          62.7803   91.0046   15.9985 H       1  UNL1        0.1192
     40 C          65.2034   91.0718   13.8320 C.ar    1  UNL1       -0.0063
     41 C          64.9080   91.7451   12.5246 C.ar    1  UNL1       -0.0029
     42 C          65.9939   92.4820   11.7982 C.ar    1  UNL1       -0.0003
     43 C          67.3753   92.5457   12.3793 C.ar    1  UNL1       -0.0000
     44 C          67.6707   91.8724   13.6867 C.ar    1  UNL1       -0.0003
     45 C          66.5848   91.1355   14.4131 C.ar    1  UNL1       -0.0029
@<TRIPOS>BOND
     1    19    20    1
     2    20    17    1
     3    17    18    2
     4    17    16    1
     5    16    15    1
     6    15     9    1
     7     9    10   ar
     8    10    11   ar
     9    11    12   ar
    10    12     1    1
    11     1     2   ar
    12     2     3   ar
    13     3    23    1
    14    23    24    1
    15    24    25   ar
    16    25    26    1
    17    25    27   ar
    18    27    28   ar
    19    28    29   ar
    20    29    30   ar
    21    30    31    1
    22    31    32    1
    23    31    33    1
    24    31    34    1
    25     3     4   ar
    26     4     5    2
    27     4     6   ar
    28     6    35    1
    29    35    36    1
    30    36    37    1
    31    36    40    1
    32    40    41   ar
    33    41    42   ar
    34    42    43   ar
    35    43    44   ar
    36    44    45   ar
    37     6     7   ar
    38     7     8    2
    39    12    13   ar
    40    13    14   ar
    41    14     9   ar
    42     7     1   ar
    43    30    24   ar
    44    45    40   ar
    45    19    21    1
    46    19    22    1
    47    37    38    1
    48    37    39    1
@<TRIPOS>MOLECULE
*****
 45 48 0 0 0
SMALL
GASTEIGER

@<TRIPOS>ATOM
      1 C          63.0780   89.4982   11.7447 C.ar    1  UNL1        0.0736
      2 C          63.4907   88.4814   12.7672 C.ar    1  UNL1        0.0847
      3 N          64.4728   88.8514   13.8390 N.ar    1  UNL1       -0.2755
      4 C          65.0420   90.2383   13.8882 C.ar    1  UNL1        0.3341
      5 O          66.0241   90.6084   14.9599 O.2     1  UNL1       -0.2462
      6 N          64.6293   91.2551   12.8656 N.ar    1  UNL1       -0.2470
      7 C          63.6472   90.8851   11.7939 C.ar    1  UNL1        0.2657
      8 O          63.2345   91.9020   10.7713 O.2     1  UNL1       -0.2668
      9 C          60.1319   88.3881    8.5294 C.ar    1  UNL1        0.0213
     10 C          60.0381   89.7247    9.2034 C.ar    1  UNL1       -0.0007
     11 C          61.0201   90.0948   10.2752 C.ar    1  UNL1       -0.0000
     12 C          62.0959   89.1282   10.6729 C.ar    1  UNL1        0.0060
     13 C          62.1897   87.7915    9.9988 C.ar    1  UNL1       -0.0000
     14 C          61.2077   87.4214    8.9270 C.ar    1  UNL1       -0.0007
     15 C          59.1498   88.0180    7.4576 C.3     1  UNL1        0.2351
     16 O          58.1544   89.0290    6.9710 O.3     1  UNL1       -0.4425
     17 C          58.5632   90.0565    5.9575 C.2     1  UNL1        0.3334
     18 O          60.0105   90.2239    5.6011 O.2     1  UNL1       -0.2485
     19 N          56.0875   90.4866    5.2971 N.3     1  UNL1       -0.3119
     20 C          57.5245   90.9166    5.3005 C.3     1  UNL1        0.1764
     21 H          55.5248   91.1850    4.8112 H       1  UNL1        0.1193
     22 H          55.7582   90.3933    6.2580 H       1  UNL1        0.1193
     23 C          64.8855   87.8345   14.8615 C.3     1  UNL1        0.1394
     24 C          63.8432   87.0901   15.6421 C.ar    1  UNL1        0.0319
     25 C          63.1328   87.7645   16.7780 C.ar    1  UNL1        0.1379
     26 F          63.4646   89.1835   17.1334 F       1  UNL1       -0.2044
     27 C          62.0904   87.0200   17.5586 C.ar    1  UNL1        0.0294
     28 C          61.7586   85.6010   17.2032 C.ar    1  UNL1        0.0022
     29 C          62.4690   84.9265   16.0673 C.ar    1  UNL1        0.0037
     30 C          63.5113   85.6710   15.2867 C.ar    1  UNL1        0.0714
     31 C          64.2218   84.9965   14.1508 C.3     1  UNL1        0.4184
     32 F          64.9322   84.3220   13.0149 F       1  UNL1       -0.1659
     33 F          65.3739   84.6818   15.0583 F       1  UNL1       -0.1659
     34 F          63.0696   85.3112   13.2434 F       1  UNL1       -0.1659
     35 C          65.1985   92.6421   12.9148 C.3     1  UNL1        0.1334
     36 C          66.6432   92.8721   12.5831 C.3     1  UNL1        0.0968
     37 N          67.6893   92.7297   13.6486 N.3     1  UNL1       -0.3172
     38 H          68.6086   92.9203   13.2501 H       1  UNL1        0.1192
     39 H          67.6698   91.7796   14.0194 H       1  UNL1        0.1192
     40 C          67.0418   93.2445   11.1857 C.ar    1  UNL1       -0.0063
     41 C          66.5482   94.5255   10.5812 C.ar    1  UNL1       -0.0029
     42 C          66.9468   94.8979    9.1840 C.ar    1  UNL1       -0.0003
     43 C          67.8389   93.9893    8.3912 C.ar    1  UNL1       -0.0000
     44 C          68.3325   92.7083    8.9957 C.ar    1  UNL1       -0.0003
     45 C          67.9339   92.3359   10.3930 C.ar    1  UNL1       -0.0029
@<TRIPOS>BOND
     1    19    20    1
     2    20    17    1
     3    17    18    2
     4    17    16    1
     5    16    15    1
     6    15     9    1
     7     9    10   ar
     8    10    11   ar
     9    11    12   ar
    10    12     1    1
    11     1     2   ar
    12     2     3   ar
    13     3    23    1
    14    23    24    1
    15    24    25   ar
    16    25    26    1
    17    25    27   ar
    18    27    28   ar
    19    28    29   ar
    20    29    30   ar
    21    30    31    1
    22    31    32    1
    23    31    33    1
    24    31    34    1
    25     3     4   ar
    26     4     5    2
    27     4     6   ar
    28     6    35    1
    29    35    36    1
    30    36    37    1
    31    36    40    1
    32    40    41   ar
    33    41    42   ar
    34    42    43   ar
    35    43    44   ar
    36    44    45   ar
    37     6     7   ar
    38     7     8    2
    39    12    13   ar
    40    13    14   ar
    41    14     9   ar
    42     7     1   ar
    43    30    24   ar
    44    45    40   ar
    45    19    21    1
    46    19    22    1
    47    37    38    1
    48    37    39    1
@<TRIPOS>MOLECULE
*****
 45 48 0 0 0
SMALL
GASTEIGER

@<TRIPOS>ATOM
      1 C          62.3848   87.6932   11.5194 C.ar    1  UNL1        0.0736
      2 C          62.8838   86.3377   11.9239 C.ar    1  UNL1        0.0847
      3 N          63.7809   86.1942   13.1175 N.ar    1  UNL1       -0.2755
      4 C          64.1788   87.4061   13.9067 C.ar    1  UNL1        0.3341
      5 O          65.0758   87.2626   15.1003 O.2     1  UNL1       -0.2462
      6 N          63.6797   88.7616   13.5022 N.ar    1  UNL1       -0.2470
      7 C          62.7827   88.9051   12.3086 C.ar    1  UNL1        0.2657
      8 O          62.2836   90.2606   11.9042 O.2     1  UNL1       -0.2668
      9 C          59.6937   88.1238    7.9385 C.ar    1  UNL1        0.0213
     10 C          60.1202   89.3395    8.7067 C.ar    1  UNL1       -0.0007
     11 C          61.0172   89.1959    9.9003 C.ar    1  UNL1       -0.0000
     12 C          61.4877   87.8367   10.3258 C.ar    1  UNL1        0.0060
     13 C          61.0612   86.6210    9.5576 C.ar    1  UNL1       -0.0000
     14 C          60.1642   86.7645    8.3640 C.ar    1  UNL1       -0.0007
     15 C          58.7966   88.2673    6.7449 C.3     1  UNL1        0.2351
     16 O          58.0642   89.5546    6.5076 O.3     1  UNL1       -0.4425
     17 C          58.6416   90.5870    5.5852 C.2     1  UNL1        0.3334
     18 O          60.1209   90.6313    5.3412 O.2     1  UNL1       -0.2485
     19 N          56.2545   91.3635    4.9150 N.3     1  UNL1       -0.3119
     20 C          57.7395   91.5750    4.9067 C.3     1  UNL1        0.1764
     21 H          55.7998   92.1252    4.4115 H       1  UNL1        0.1193
     22 H          55.9192   91.3445    5.8780 H       1  UNL1        0.1193
     23 C          64.2800   84.8386   13.5219 C.3     1  UNL1        0.1394
     24 C          63.3480   83.6633   13.5144 C.ar    1  UNL1        0.0319
     25 C          62.5181   83.3564   14.7256 C.ar    1  UNL1        0.1379
     26 F          62.6202   84.2248   15.9444 F       1  UNL1       -0.2044
     27 C          61.5862   82.1810   14.7181 C.ar    1  UNL1        0.0294
     28 C          61.4841   81.3126   13.4993 C.ar    1  UNL1        0.0022
     29 C          62.3140   81.6195   12.2881 C.ar    1  UNL1        0.0037
     30 C          63.2460   82.7949   12.2956 C.ar    1  UNL1        0.0714
     31 C          64.0759   83.1018   11.0844 C.3     1  UNL1        0.4184
     32 F          64.9057   83.4087    9.8731 F       1  UNL1       -0.1659
     33 F          62.9429   83.8997   10.5103 F       1  UNL1       -0.1659
     34 F          65.2088   82.3038   11.6584 F       1  UNL1       -0.1659
     35 C          64.0777   89.9736   14.2914 C.3     1  UNL1        0.1334
     36 C          64.8974   91.0521   13.6473 C.3     1  UNL1        0.0968
     37 N          64.5437   91.5446   12.2753 N.3     1  UNL1       -0.3172
     38 H          65.2013   92.2723   11.9954 H       1  UNL1        0.1192
     39 H          63.5979   91.9262   12.2844 H       1  UNL1        0.1192
     40 C          66.0708   91.6381   14.3752 C.ar    1  UNL1       -0.0063
     41 C          67.4325   91.6120   13.7467 C.ar    1  UNL1       -0.0029
     42 C          68.6058   92.1980   14.4745 C.ar    1  UNL1       -0.0003
     43 C          68.4175   92.8101   15.8309 C.ar    1  UNL1       -0.0000
     44 C          67.0558   92.8362   16.4594 C.ar    1  UNL1       -0.0003
     45 C          65.8824   92.2502   15.7316 C.ar    1  UNL1       -0.0029
@<TRIPOS>BOND
     1    19    20    1
     2    20    17    1
     3    17    18    2
     4    17    16    1
     5    16    15    1
     6    15     9    1
     7     9    10   ar
     8    10    11   ar
     9    11    12   ar
    10    12     1    1
    11     1     2   ar
    12     2     3   ar
    13     3    23    1
    14    23    24    1
    15    24    25   ar
    16    25    26    1
    17    25    27   ar
    18    27    28   ar
    19    28    29   ar
    20    29    30   ar
    21    30    31    1
    22    31    32    1
    23    31    33    1
    24    31    34    1
    25     3     4   ar
    26     4     5    2
    27     4     6   ar
    28     6    35    1
    29    35    36    1
    30    36    37    1
    31    36    40    1
    32    40    41   ar
    33    41    42   ar
    34    42    43   ar
    35    43    44   ar
    36    44    45   ar
    37     6     7   ar
    38     7     8    2
    39    12    13   ar
    40    13    14   ar
    41    14     9   ar
    42     7     1   ar
    43    30    24   ar
    44    45    40   ar
    45    19    21    1
    46    19    22    1
    47    37    38    1
    48    37    39    1
@<TRIPOS>MOLECULE
*****
 45 48 0 0 0
SMALL
GASTEIGER

@<TRIPOS>ATOM
      1 C          62.3274   86.9395   11.5437 C.ar    1  UNL1        0.0736
      2 C          62.4272   85.4796   11.8735 C.ar    1  UNL1        0.0847
      3 N          63.2443   85.0304   13.0485 N.ar    1  UNL1       -0.2755
      4 C          63.9615   86.0409   13.8937 C.ar    1  UNL1        0.3341
      5 O          64.7785   85.5916   15.0687 O.2     1  UNL1       -0.2462
      6 N          63.8616   87.5008   13.5639 N.ar    1  UNL1       -0.2470
      7 C          63.0445   87.9500   12.3889 C.ar    1  UNL1        0.2657
      8 O          62.9447   89.4100   12.0591 O.2     1  UNL1       -0.2668
      9 C          59.8762   88.2873    8.0188 C.ar    1  UNL1        0.0213
     10 C          60.1969   89.2517    9.1220 C.ar    1  UNL1       -0.0007
     11 C          61.0140   88.8024   10.2969 C.ar    1  UNL1       -0.0000
     12 C          61.5103   87.3888   10.3687 C.ar    1  UNL1        0.0060
     13 C          61.1896   86.4244    9.2655 C.ar    1  UNL1       -0.0000
     14 C          60.3725   86.8737    8.0906 C.ar    1  UNL1       -0.0007
     15 C          59.0592   88.7366    6.8438 C.3     1  UNL1        0.2351
     16 O          58.5013   90.1285    6.8065 O.3     1  UNL1       -0.4425
     17 C          58.5240   90.9115    5.5273 C.2     1  UNL1        0.3334
     18 O          59.8340   91.2769    4.8947 O.2     1  UNL1       -0.2485
     19 N          55.9637   90.6062    5.2080 N.3     1  UNL1       -0.3119
     20 C          57.2365   91.3292    4.8807 C.3     1  UNL1        0.1764
     21 H          55.1932   91.0191    4.6824 H       1  UNL1        0.1193
     22 H          55.7748   90.6857    6.2072 H       1  UNL1        0.1193
     23 C          63.3441   83.5704   13.3783 C.3     1  UNL1        0.1394
     24 C          63.3583   82.5520   12.2771 C.ar    1  UNL1        0.0319
     25 C          64.0777   82.8449   10.9939 C.ar    1  UNL1        0.1379
     26 F          64.7829   84.1562   10.8118 F       1  UNL1       -0.2044
     27 C          64.0918   81.8264    9.8926 C.ar    1  UNL1        0.0294
     28 C          63.3866   80.5152   10.0747 C.ar    1  UNL1        0.0022
     29 C          62.6672   80.2223   11.3579 C.ar    1  UNL1        0.0037
     30 C          62.6530   81.2407   12.4591 C.ar    1  UNL1        0.0714
     31 C          61.9336   80.9478   13.7423 C.3     1  UNL1        0.4184
     32 F          61.2142   80.6549   15.0256 F       1  UNL1       -0.1659
     33 F          60.6789   81.5421   13.1746 F       1  UNL1       -0.1659
     34 F          63.1884   80.3535   14.3101 F       1  UNL1       -0.1659
     35 C          64.5788   88.5114   14.4091 C.3     1  UNL1        0.1334
     36 C          64.0041   89.8858   14.5843 C.3     1  UNL1        0.0968
     37 N          62.5779   90.0527   15.0182 N.3     1  UNL1       -0.3172
     38 H          62.3571   91.0462   15.0857 H       1  UNL1        0.1192
     39 H          62.4458   89.6124   15.9287 H       1  UNL1        0.1192
     40 C          64.8556   91.0934   14.3258 C.ar    1  UNL1       -0.0063
     41 C          64.9364   91.6722   12.9443 C.ar    1  UNL1       -0.0029
     42 C          65.7879   92.8798   12.6858 C.ar    1  UNL1       -0.0003
     43 C          66.5585   93.5084   13.8086 C.ar    1  UNL1       -0.0000
     44 C          66.4777   92.9296   15.1901 C.ar    1  UNL1       -0.0003
     45 C          65.6262   91.7221   15.4487 C.ar    1  UNL1       -0.0029
@<TRIPOS>BOND
     1    19    20    1
     2    20    17    1
     3    17    18    2
     4    17    16    1
     5    16    15    1
     6    15     9    1
     7     9    10   ar
     8    10    11   ar
     9    11    12   ar
    10    12     1    1
    11     1     2   ar
    12     2     3   ar
    13     3    23    1
    14    23    24    1
    15    24    25   ar
    16    25    26    1
    17    25    27   ar
    18    27    28   ar
    19    28    29   ar
    20    29    30   ar
    21    30    31    1
    22    31    32    1
    23    31    33    1
    24    31    34    1
    25     3     4   ar
    26     4     5    2
    27     4     6   ar
    28     6    35    1
    29    35    36    1
    30    36    37    1
    31    36    40    1
    32    40    41   ar
    33    41    42   ar
    34    42    43   ar
    35    43    44   ar
    36    44    45   ar
    37     6     7   ar
    38     7     8    2
    39    12    13   ar
    40    13    14   ar
    41    14     9   ar
    42     7     1   ar
    43    30    24   ar
    44    45    40   ar
    45    19    21    1
    46    19    22    1
    47    37    38    1
    48    37    39    1
@<TRIPOS>MOLECULE
*****
 45 48 0 0 0
SMALL
GASTEIGER

@<TRIPOS>ATOM
      1 C          63.3506   87.9930   13.3595 C.ar    1  UNL1        0.0736
      2 C          64.0489   86.6735   13.5056 C.ar    1  UNL1        0.0847
      3 N          63.5743   85.4833   12.7257 N.ar    1  UNL1       -0.2755
      4 C          62.4014   85.6127   11.7997 C.ar    1  UNL1        0.3341
      5 O          61.9268   84.4225   11.0197 O.2     1  UNL1       -0.2462
      6 N          61.7032   86.9321   11.6535 N.ar    1  UNL1       -0.2470
      7 C          62.1778   88.1223   12.4334 C.ar    1  UNL1        0.2657
      8 O          61.4795   89.4418   12.2873 O.2     1  UNL1       -0.2668
      9 C          64.7745   91.5634   15.6993 C.ar    1  UNL1        0.0213
     10 C          65.1958   91.3864   14.2706 C.ar    1  UNL1       -0.0007
     11 C          64.7212   90.1962   13.4907 C.ar    1  UNL1       -0.0000
     12 C          63.8252   89.1831   14.1394 C.ar    1  UNL1        0.0060
     13 C          63.4039   89.3602   15.5681 C.ar    1  UNL1       -0.0000
     14 C          63.8785   90.5503   16.3480 C.ar    1  UNL1       -0.0007
     15 C          65.2491   92.7536   16.4792 C.3     1  UNL1        0.2351
     16 O          66.7186   93.0119   16.6331 O.3     1  UNL1       -0.4425
     17 C          67.5312   93.4492   15.4505 C.2     1  UNL1        0.3334
     18 O          66.8925   94.2547   14.3582 O.2     1  UNL1       -0.2485
     19 N          69.4807   92.2744   14.1979 N.3     1  UNL1       -0.3119
     20 C          68.9825   93.0809   15.3603 C.3     1  UNL1        0.1764
     21 H          70.4836   92.1174   14.2978 H       1  UNL1        0.1193
     22 H          69.3005   92.7804   13.3308 H       1  UNL1        0.1193
     23 C          64.2726   84.1638   12.8719 C.3     1  UNL1        0.1394
     24 C          63.4734   82.9108   13.0746 C.ar    1  UNL1        0.0319
     25 C          63.4858   81.8358   12.0285 C.ar    1  UNL1        0.1379
     26 F          64.2973   82.0140   10.7796 F       1  UNL1       -0.2044
     27 C          62.6866   80.5827   12.2313 C.ar    1  UNL1        0.0294
     28 C          61.8751   80.4046   13.4801 C.ar    1  UNL1        0.0022
     29 C          61.8627   81.4795   14.5263 C.ar    1  UNL1        0.0037
     30 C          62.6619   82.7326   14.3235 C.ar    1  UNL1        0.0714
     31 C          62.6495   83.8075   15.3697 C.3     1  UNL1        0.4184
     32 F          62.6372   84.8824   16.4158 F       1  UNL1       -0.1659
     33 F          61.3271   84.2933   14.8548 F       1  UNL1       -0.1659
     34 F          63.9720   83.3216   15.8845 F       1  UNL1       -0.1659
     35 C          60.5302   87.0615   10.7274 C.3     1  UNL1        0.1334
     36 C          60.7471   87.4276    9.2891 C.3     1  UNL1        0.0968
     37 N          60.4814   88.8285    8.8235 N.3     1  UNL1       -0.3172
     38 H          60.6801   88.8986    7.8254 H       1  UNL1        0.1192
     39 H          61.0801   89.4764    9.3356 H       1  UNL1        0.1192
     40 C          61.2297   86.3928    8.3163 C.ar    1  UNL1       -0.0063
     41 C          60.2752   85.7875    7.3302 C.ar    1  UNL1       -0.0029
     42 C          60.7577   84.7527    6.3574 C.ar    1  UNL1       -0.0003
     43 C          62.1948   84.3232    6.3707 C.ar    1  UNL1       -0.0000
     44 C          63.1494   84.9285    7.3568 C.ar    1  UNL1       -0.0003
     45 C          62.6668   85.9633    8.3296 C.ar    1  UNL1       -0.0029
@<TRIPOS>BOND
     1    19    20    1
     2    20    17    1
     3    17    18    2
     4    17    16    1
     5    16    15    1
     6    15     9    1
     7     9    10   ar
     8    10    11   ar
     9    11    12   ar
    10    12     1    1
    11     1     2   ar
    12     2     3   ar
    13     3    23    1
    14    23    24    1
    15    24    25   ar
    16    25    26    1
    17    25    27   ar
    18    27    28   ar
    19    28    29   ar
    20    29    30   ar
    21    30    31    1
    22    31    32    1
    23    31    33    1
    24    31    34    1
    25     3     4   ar
    26     4     5    2
    27     4     6   ar
    28     6    35    1
    29    35    36    1
    30    36    37    1
    31    36    40    1
    32    40    41   ar
    33    41    42   ar
    34    42    43   ar
    35    43    44   ar
    36    44    45   ar
    37     6     7   ar
    38     7     8    2
    39    12    13   ar
    40    13    14   ar
    41    14     9   ar
    42     7     1   ar
    43    30    24   ar
    44    45    40   ar
    45    19    21    1
    46    19    22    1
    47    37    38    1
    48    37    39    1
@<TRIPOS>MOLECULE
*****
 45 48 0 0 0
SMALL
GASTEIGER

@<TRIPOS>ATOM
      1 C          62.9938   89.3243   11.7329 C.ar    1  UNL1        0.0736
      2 C          63.3491   88.2876   12.7571 C.ar    1  UNL1        0.0847
      3 N          64.3186   88.6176   13.8531 N.ar    1  UNL1       -0.2755
      4 C          64.9327   89.9841   13.9249 C.ar    1  UNL1        0.3341
      5 O          65.9022   90.3141   15.0210 O.2     1  UNL1       -0.2462
      6 N          64.5774   91.0208   12.9007 N.ar    1  UNL1       -0.2470
      7 C          63.6080   90.6909   11.8047 C.ar    1  UNL1        0.2657
      8 O          63.2527   91.7276   10.7804 O.2     1  UNL1       -0.2668
      9 C          60.0854   88.3345    8.4448 C.ar    1  UNL1        0.0213
     10 C          59.9820   89.6443    9.1684 C.ar    1  UNL1       -0.0007
     11 C          60.9515   89.9742   10.2645 C.ar    1  UNL1       -0.0000
     12 C          62.0243   88.9943   10.6369 C.ar    1  UNL1        0.0060
     13 C          62.1277   87.6845    9.9132 C.ar    1  UNL1       -0.0000
     14 C          61.1583   87.3546    8.8172 C.ar    1  UNL1       -0.0007
     15 C          59.1159   88.0045    7.3488 C.3     1  UNL1        0.2351
     16 O          58.1276   89.0339    6.8867 O.3     1  UNL1       -0.4425
     17 C          58.5465   90.0888    5.9061 C.2     1  UNL1        0.3334
     18 O          59.9977   90.2683    5.5719 O.2     1  UNL1       -0.2485
     19 N          56.0717   90.5522    5.2648 N.3     1  UNL1       -0.3119
     20 C          57.5140   90.9642    5.2596 C.3     1  UNL1        0.1764
     21 H          55.5144   91.2593    4.7855 H       1  UNL1        0.1193
     22 H          55.7481   90.4593    6.2276 H       1  UNL1        0.1193
     23 C          64.6739   87.5808   14.8774 C.3     1  UNL1        0.1394
     24 C          63.7821   86.3923   15.0821 C.ar    1  UNL1        0.0319
     25 C          63.7202   85.3130   14.0422 C.ar    1  UNL1        0.1379
     26 F          64.5503   85.4223   12.7976 F       1  UNL1       -0.2044
     27 C          62.8284   84.1244   14.2469 C.ar    1  UNL1        0.0294
     28 C          61.9984   84.0151   15.4916 C.ar    1  UNL1        0.0022
     29 C          62.0602   85.0944   16.5315 C.ar    1  UNL1        0.0037
     30 C          62.9520   86.2829   16.3268 C.ar    1  UNL1        0.0714
     31 C          63.0138   87.3622   17.3667 C.3     1  UNL1        0.4184
     32 F          63.0756   88.4414   18.4066 F       1  UNL1       -0.1659
     33 F          62.6574   88.3837   16.3277 F       1  UNL1       -0.1659
     34 F          63.3702   86.3407   18.4056 F       1  UNL1       -0.1659
     35 C          65.1916   92.3875   12.9725 C.3     1  UNL1        0.1334
     36 C          66.6325   92.5825   12.6039 C.3     1  UNL1        0.0968
     37 N          67.7100   92.2738   13.6007 N.3     1  UNL1       -0.3172
     38 H          68.6221   92.4625   13.1848 H       1  UNL1        0.1192
     39 H          67.6548   91.2909   13.8676 H       1  UNL1        0.1192
     40 C          66.9958   93.0863   11.2385 C.ar    1  UNL1       -0.0063
     41 C          67.9013   92.2779   10.3573 C.ar    1  UNL1       -0.0029
     42 C          68.2647   92.7816    8.9919 C.ar    1  UNL1       -0.0003
     43 C          67.7225   94.0937    8.5078 C.ar    1  UNL1       -0.0000
     44 C          66.8170   94.9021    9.3890 C.ar    1  UNL1       -0.0003
     45 C          66.4536   94.3984   10.7543 C.ar    1  UNL1       -0.0029
@<TRIPOS>BOND
     1    19    20    1
     2    20    17    1
     3    17    18    2
     4    17    16    1
     5    16    15    1
     6    15     9    1
     7     9    10   ar
     8    10    11   ar
     9    11    12   ar
    10    12     1    1
    11     1     2   ar
    12     2     3   ar
    13     3    23    1
    14    23    24    1
    15    24    25   ar
    16    25    26    1
    17    25    27   ar
    18    27    28   ar
    19    28    29   ar
    20    29    30   ar
    21    30    31    1
    22    31    32    1
    23    31    33    1
    24    31    34    1
    25     3     4   ar
    26     4     5    2
    27     4     6   ar
    28     6    35    1
    29    35    36    1
    30    36    37    1
    31    36    40    1
    32    40    41   ar
    33    41    42   ar
    34    42    43   ar
    35    43    44   ar
    36    44    45   ar
    37     6     7   ar
    38     7     8    2
    39    12    13   ar
    40    13    14   ar
    41    14     9   ar
    42     7     1   ar
    43    30    24   ar
    44    45    40   ar
    45    19    21    1
    46    19    22    1
    47    37    38    1
    48    37    39    1
@<TRIPOS>MOLECULE
*****
 45 48 0 0 0
SMALL
GASTEIGER

@<TRIPOS>ATOM
      1 C          62.4021   88.2359   11.5365 C.ar    1  UNL1        0.0736
      2 C          62.9546   89.4477   12.2264 C.ar    1  UNL1        0.0847
      3 N          63.8458   89.2888   13.4224 N.ar    1  UNL1       -0.2755
      4 C          64.1846   87.9180   13.9285 C.ar    1  UNL1        0.3341
      5 O          65.0758   87.7591   15.1245 O.2     1  UNL1       -0.2462
      6 N          63.6321   86.7061   13.2385 N.ar    1  UNL1       -0.2470
      7 C          62.7408   86.8651   12.0425 C.ar    1  UNL1        0.2657
      8 O          62.1883   85.6531   11.3526 O.2     1  UNL1       -0.2668
      9 C          59.7283   88.7127    7.9485 C.ar    1  UNL1        0.0213
     10 C          60.4585   87.4219    8.1735 C.ar    1  UNL1       -0.0007
     11 C          61.3498   87.2629    9.3695 C.ar    1  UNL1       -0.0000
     12 C          61.5108   88.3948   10.3405 C.ar    1  UNL1        0.0060
     13 C          60.7806   89.6856   10.1155 C.ar    1  UNL1       -0.0000
     14 C          59.8894   89.8445    8.9195 C.ar    1  UNL1       -0.0007
     15 C          58.8371   88.8716    6.7525 C.3     1  UNL1        0.2351
     16 O          59.2441   89.7783    5.6290 O.3     1  UNL1       -0.4425
     17 C          58.4025   90.9716    5.2858 C.2     1  UNL1        0.3334
     18 O          56.9167   90.9239    5.4855 O.2     1  UNL1       -0.2485
     19 N          59.0907   92.4485    3.2622 N.3     1  UNL1       -0.3119
     20 C          59.0469   92.2126    4.7428 C.3     1  UNL1        0.1764
     21 H          59.5614   93.3334    3.0726 H       1  UNL1        0.1193
     22 H          58.1396   92.4839    2.8952 H       1  UNL1        0.1193
     23 C          64.3983   90.5007   14.1124 C.3     1  UNL1        0.1394
     24 C          65.0672   91.5793   13.3129 C.ar    1  UNL1        0.0319
     25 C          64.5984   91.8808   11.9203 C.ar    1  UNL1        0.1379
     26 F          63.4607   91.1037   11.3272 F       1  UNL1       -0.2044
     27 C          65.2674   92.9593   11.1207 C.ar    1  UNL1        0.0294
     28 C          66.4051   93.7364   11.7138 C.ar    1  UNL1        0.0022
     29 C          66.8740   93.4349   13.1064 C.ar    1  UNL1        0.0037
     30 C          66.2050   92.3563   13.9059 C.ar    1  UNL1        0.0714
     31 C          66.6739   92.0548   15.2985 C.3     1  UNL1        0.4184
     32 F          67.1427   91.7533   16.6911 F       1  UNL1       -0.1659
     33 F          65.5372   92.8598   15.8554 F       1  UNL1       -0.1659
     34 F          67.8105   91.2499   14.7416 F       1  UNL1       -0.1659
     35 C          63.9708   85.3352   13.7446 C.3     1  UNL1        0.1334
     36 C          62.8798   84.4160   14.2078 C.3     1  UNL1        0.0968
     37 N          61.9098   84.8722   15.2571 N.3     1  UNL1       -0.3172
     38 H          61.2413   84.1263   15.4495 H       1  UNL1        0.1192
     39 H          61.4117   85.6976   14.9238 H       1  UNL1        0.1192
     40 C          62.7588   83.0405   13.6219 C.ar    1  UNL1       -0.0063
     41 C          62.0103   81.9726   14.3632 C.ar    1  UNL1       -0.0029
     42 C          61.8893   80.5972   13.7773 C.ar    1  UNL1       -0.0003
     43 C          62.5166   80.2895   12.4501 C.ar    1  UNL1       -0.0000
     44 C          63.2651   81.3573   11.7087 C.ar    1  UNL1       -0.0003
     45 C          63.3861   82.7328   12.2946 C.ar    1  UNL1       -0.0029
@<TRIPOS>BOND
     1    19    20    1
     2    20    17    1
     3    17    18    2
     4    17    16    1
     5    16    15    1
     6    15     9    1
     7     9    10   ar
     8    10    11   ar
     9    11    12   ar
    10    12     1    1
    11     1     2   ar
    12     2     3   ar
    13     3    23    1
    14    23    24    1
    15    24    25   ar
    16    25    26    1
    17    25    27   ar
    18    27    28   ar
    19    28    29   ar
    20    29    30   ar
    21    30    31    1
    22    31    32    1
    23    31    33    1
    24    31    34    1
    25     3     4   ar
    26     4     5    2
    27     4     6   ar
    28     6    35    1
    29    35    36    1
    30    36    37    1
    31    36    40    1
    32    40    41   ar
    33    41    42   ar
    34    42    43   ar
    35    43    44   ar
    36    44    45   ar
    37     6     7   ar
    38     7     8    2
    39    12    13   ar
    40    13    14   ar
    41    14     9   ar
    42     7     1   ar
    43    30    24   ar
    44    45    40   ar
    45    19    21    1
    46    19    22    1
    47    37    38    1
    48    37    39    1
@<TRIPOS>MOLECULE
*****
 45 48 0 0 0
SMALL
GASTEIGER

@<TRIPOS>ATOM
      1 C          62.8167   89.1089   11.8349 C.ar    1  UNL1        0.0736
      2 C          63.2531   90.4981   12.1948 C.ar    1  UNL1        0.0847
      3 N          64.1655   90.7182   13.3649 N.ar    1  UNL1       -0.2755
      4 C          64.6416   89.5490   14.1751 C.ar    1  UNL1        0.3341
      5 O          65.5540   89.7690   15.3451 O.2     1  UNL1       -0.2462
      6 N          64.2052   88.1598   13.8151 N.ar    1  UNL1       -0.2470
      7 C          63.2928   87.9397   12.6450 C.ar    1  UNL1        0.2657
      8 O          62.8564   86.5504   12.2851 O.2     1  UNL1       -0.2668
      9 C          60.0795   88.4487    8.3247 C.ar    1  UNL1        0.0213
     10 C          60.0175   89.7358    9.0924 C.ar    1  UNL1       -0.0007
     11 C          60.9299   89.9559   10.2625 C.ar    1  UNL1       -0.0000
     12 C          61.9043   88.8888   10.6648 C.ar    1  UNL1        0.0060
     13 C          61.9663   87.6017    9.8971 C.ar    1  UNL1       -0.0000
     14 C          61.0539   87.3817    8.7270 C.ar    1  UNL1       -0.0007
     15 C          59.1670   88.2287    7.1546 C.3     1  UNL1        0.2351
     16 O          58.2054   89.3029    6.7410 O.3     1  UNL1       -0.4425
     17 C          58.6304   90.3514    5.7560 C.2     1  UNL1        0.3334
     18 O          60.0793   90.5005    5.3977 O.2     1  UNL1       -0.2485
     19 N          56.1634   90.8416    5.1048 N.3     1  UNL1       -0.3119
     20 C          57.6064   91.2507    5.1293 C.3     1  UNL1        0.1764
     21 H          55.6124   91.5661    4.6444 H       1  UNL1        0.1193
     22 H          55.8294   90.7161    6.0604 H       1  UNL1        0.1193
     23 C          64.6019   92.1075   13.7248 C.3     1  UNL1        0.1394
     24 C          65.9482   92.3334   14.3464 C.ar    1  UNL1        0.0319
     25 C          66.0727   92.4772   15.8343 C.ar    1  UNL1        0.1379
     26 F          64.8510   92.3950   16.7006 F       1  UNL1       -0.2044
     27 C          67.4191   92.7031   16.4559 C.ar    1  UNL1        0.0294
     28 C          68.6408   92.7852   15.5895 C.ar    1  UNL1        0.0022
     29 C          68.5163   92.6414   14.1017 C.ar    1  UNL1        0.0037
     30 C          67.1700   92.4155   13.4801 C.ar    1  UNL1        0.0714
     31 C          67.0454   92.2717   11.9922 C.3     1  UNL1        0.4184
     32 F          66.9209   92.1279   10.5043 F       1  UNL1       -0.1659
     33 F          68.1427   91.2490   11.9992 F       1  UNL1       -0.1659
     34 F          65.9482   93.2945   11.9852 F       1  UNL1       -0.1659
     35 C          64.6813   86.9905   14.6253 C.3     1  UNL1        0.1334
     36 C          63.6875   86.0589   15.2533 C.3     1  UNL1        0.0968
     37 N          62.8763   86.5108   16.4313 N.3     1  UNL1       -0.3172
     38 H          62.2570   85.7562   16.7272 H       1  UNL1        0.1192
     39 H          62.3197   87.3243   16.1689 H       1  UNL1        0.1192
     40 C          63.5049   84.6753   14.7033 C.ar    1  UNL1       -0.0063
     41 C          64.5198   84.1040   13.7579 C.ar    1  UNL1       -0.0029
     42 C          64.3373   82.7205   13.2080 C.ar    1  UNL1       -0.0003
     43 C          63.1399   81.9082   13.6034 C.ar    1  UNL1       -0.0000
     44 C          62.1251   82.4794   14.5488 C.ar    1  UNL1       -0.0003
     45 C          62.3076   83.8630   15.0987 C.ar    1  UNL1       -0.0029
@<TRIPOS>BOND
     1    19    20    1
     2    20    17    1
     3    17    18    2
     4    17    16    1
     5    16    15    1
     6    15     9    1
     7     9    10   ar
     8    10    11   ar
     9    11    12   ar
    10    12     1    1
    11     1     2   ar
    12     2     3   ar
    13     3    23    1
    14    23    24    1
    15    24    25   ar
    16    25    26    1
    17    25    27   ar
    18    27    28   ar
    19    28    29   ar
    20    29    30   ar
    21    30    31    1
    22    31    32    1
    23    31    33    1
    24    31    34    1
    25     3     4   ar
    26     4     5    2
    27     4     6   ar
    28     6    35    1
    29    35    36    1
    30    36    37    1
    31    36    40    1
    32    40    41   ar
    33    41    42   ar
    34    42    43   ar
    35    43    44   ar
    36    44    45   ar
    37     6     7   ar
    38     7     8    2
    39    12    13   ar
    40    13    14   ar
    41    14     9   ar
    42     7     1   ar
    43    30    24   ar
    44    45    40   ar
    45    19    21    1
    46    19    22    1
    47    37    38    1
    48    37    39    1
@<TRIPOS>MOLECULE
*****
 45 48 0 0 0
SMALL
GASTEIGER

@<TRIPOS>ATOM
      1 C          62.6452   89.6033   11.2167 C.ar    1  UNL1        0.0736
      2 C          62.6167   88.1880   11.7128 C.ar    1  UNL1        0.0847
      3 N          61.5688   87.2388   11.2120 N.ar    1  UNL1       -0.2755
      4 C          60.5494   87.7047   10.2152 C.ar    1  UNL1        0.3341
      5 O          59.5015   86.7554    9.7144 O.2     1  UNL1       -0.2462
      6 N          60.5780   89.1200    9.7191 N.ar    1  UNL1       -0.2470
      7 C          61.6259   90.0693   10.2198 C.ar    1  UNL1        0.2657
      8 O          61.6544   91.4846    9.7237 O.2     1  UNL1       -0.2668
      9 C          65.7889   92.4512   12.7189 C.ar    1  UNL1        0.0213
     10 C          65.2042   91.4243   13.6427 C.ar    1  UNL1       -0.0007
     11 C          64.1563   90.4750   13.1420 C.ar    1  UNL1       -0.0000
     12 C          63.6931   90.5526   11.7174 C.ar    1  UNL1        0.0060
     13 C          64.2779   91.5795   10.7936 C.ar    1  UNL1       -0.0000
     14 C          65.3258   92.5288   11.2944 C.ar    1  UNL1       -0.0007
     15 C          66.8369   93.4005   13.2197 C.3     1  UNL1        0.2351
     16 O          68.0296   92.8767   13.9632 O.3     1  UNL1       -0.4425
     17 C          68.1751   93.1450   15.4318 C.2     1  UNL1        0.3334
     18 O          69.2116   94.1141   15.9181 O.2     1  UNL1       -0.2485
     19 N          65.9252   92.9993   16.7228 N.3     1  UNL1       -0.3119
     20 C          67.2841   92.4442   16.4142 C.3     1  UNL1        0.1764
     21 H          65.4605   92.4009   17.4057 H       1  UNL1        0.1193
     22 H          65.3700   93.0342   15.8679 H       1  UNL1        0.1193
     23 C          61.5402   85.8234   11.7082 C.3     1  UNL1        0.1394
     24 C          62.5969   84.8534   11.2694 C.ar    1  UNL1        0.0319
     25 C          62.9334   84.7186    9.8139 C.ar    1  UNL1        0.1379
     26 F          62.2132   85.5537    8.7971 F       1  UNL1       -0.2044
     27 C          63.9901   83.7485    9.3751 C.ar    1  UNL1        0.0294
     28 C          64.7102   82.9134   10.3919 C.ar    1  UNL1        0.0022
     29 C          64.3737   83.0482   11.8474 C.ar    1  UNL1        0.0037
     30 C          63.3171   84.0182   12.2862 C.ar    1  UNL1        0.0714
     31 C          62.9806   84.1530   13.7417 C.3     1  UNL1        0.4184
     32 F          62.6441   84.2879   15.1973 F       1  UNL1       -0.1659
     33 F          63.9101   85.3255   13.8480 F       1  UNL1       -0.1659
     34 F          62.0511   82.9805   13.6355 F       1  UNL1       -0.1659
     35 C          59.5586   89.5860    8.7222 C.3     1  UNL1        0.1334
     36 C          59.6519   89.1444    7.2917 C.3     1  UNL1        0.0968
     37 N          59.9059   87.7021    6.9672 N.3     1  UNL1       -0.3172
     38 H          59.9385   87.5821    5.9548 H       1  UNL1        0.1192
     39 H          59.1554   87.1294    7.3534 H       1  UNL1        0.1192
     40 C          59.4913   90.1450    6.1858 C.ar    1  UNL1       -0.0063
     41 C          58.1251   90.6428    5.8175 C.ar    1  UNL1       -0.0029
     42 C          57.9644   91.6434    4.7116 C.ar    1  UNL1       -0.0003
     43 C          59.1699   92.1461    3.9741 C.ar    1  UNL1       -0.0000
     44 C          60.5361   91.6482    4.3424 C.ar    1  UNL1       -0.0003
     45 C          60.6968   90.6477    5.4482 C.ar    1  UNL1       -0.0029
@<TRIPOS>BOND
     1    19    20    1
     2    20    17    1
     3    17    18    2
     4    17    16    1
     5    16    15    1
     6    15     9    1
     7     9    10   ar
     8    10    11   ar
     9    11    12   ar
    10    12     1    1
    11     1     2   ar
    12     2     3   ar
    13     3    23    1
    14    23    24    1
    15    24    25   ar
    16    25    26    1
    17    25    27   ar
    18    27    28   ar
    19    28    29   ar
    20    29    30   ar
    21    30    31    1
    22    31    32    1
    23    31    33    1
    24    31    34    1
    25     3     4   ar
    26     4     5    2
    27     4     6   ar
    28     6    35    1
    29    35    36    1
    30    36    37    1
    31    36    40    1
    32    40    41   ar
    33    41    42   ar
    34    42    43   ar
    35    43    44   ar
    36    44    45   ar
    37     6     7   ar
    38     7     8    2
    39    12    13   ar
    40    13    14   ar
    41    14     9   ar
    42     7     1   ar
    43    30    24   ar
    44    45    40   ar
    45    19    21    1
    46    19    22    1
    47    37    38    1
    48    37    39    1
