@<TRIPOS>MOLECULE
*****
 36 39 0 0 0
SMALL
GASTEIGER

@<TRIPOS>ATOM
      1 C          63.4122   87.6391   12.6375 C.3     1  UNL1        0.0328
      2 C          62.5261   87.2830   11.4808 C.ar    1  UNL1        0.0002
      3 C          62.2212   85.8445   11.1847 C.ar    1  UNL1        0.0774
      4 N          61.3350   85.4883   10.0280 N.ar    1  UNL1       -0.2457
      5 C          60.7538   86.5707    9.1674 C.ar    1  UNL1        0.0814
      6 C          59.8677   86.2146    8.0107 C.ar    1  UNL1        0.0196
      7 C          59.2865   87.2969    7.1502 C.ar    1  UNL1        0.0082
      8 C          59.5914   88.7355    7.4462 C.ar    1  UNL1        0.0347
      9 BR         59.0101   89.8179    6.5856 Br      1  UNL1       -0.0490
     10 C          60.4775   89.0916    8.6029 C.ar    1  UNL1        0.0083
     11 C          61.0587   88.0092    9.4635 C.ar    1  UNL1        0.0222
     12 C          61.9449   88.3654   10.6202 C.ar    1  UNL1        0.0523
     13 C          62.8024   84.7620   12.0453 C.ar    1  UNL1        0.0173
     14 C          63.7602   83.7690   11.4567 C.ar    1  UNL1        0.0015
     15 C          64.3414   82.6867   12.3174 C.ar    1  UNL1        0.0000
     16 C          63.9648   82.5974   13.7666 C.ar    1  UNL1        0.0000
     17 C          63.0070   83.5904   14.3551 C.ar    1  UNL1        0.0000
     18 C          62.4258   84.6727   13.4945 C.ar    1  UNL1        0.0015
     19 C          62.2498   89.8039   10.9163 C.2     1  UNL1        0.2456
     20 O          61.3045   90.6141   11.7528 O.2     1  UNL1       -0.2702
     21 N          63.5001   90.4322   10.3758 N.am    1  UNL1       -0.3005
     22 H          64.1206   89.9004    9.8268 H       1  UNL1        0.1497
     23 C          63.8050   91.8707   10.6719 C.3     1  UNL1        0.0940
     24 C          65.0742   92.2375   11.3822 C.3     1  UNL1        0.0431
     25 C          66.2516   92.7418   10.6016 C.ar    1  UNL1       -0.0103
     26 C          67.3444   91.7967   10.1982 C.ar    1  UNL1       -0.0034
     27 C          68.5218   92.3010    9.4175 C.ar    1  UNL1       -0.0003
     28 C          68.6065   93.7503    9.0404 C.ar    1  UNL1        0.0008
     29 C          67.5138   94.6954    9.4438 C.ar    1  UNL1        0.0111
     30 C          66.3363   94.1911   10.2244 C.ar    1  UNL1        0.0537
     31 CL         65.2436   95.1362   10.6278 Cl      1  UNL1       -0.0826
     32 C          65.1660   92.1001   12.8731 C.3     1  UNL1        0.0120
     33 C          64.7406   90.8237   13.5362 C.3     1  UNL1        0.0421
     34 C          63.8871   90.8672   14.7689 C.2     1  UNL1        0.0503
     35 O          62.6810   89.9820   14.8777 O.co2   1  UNL1       -0.5492
     36 O          64.2397   91.7959   15.8929 O.co2   1  UNL1       -0.5492
@<TRIPOS>UNITY_ATOM_ATTR
35 1
charge -1
@<TRIPOS>BOND
     1     1     2    1
     2     2     3   ar
     3     3    13    1
     4    13    14   ar
     5    14    15   ar
     6    15    16   ar
     7    16    17   ar
     8    17    18   ar
     9     3     4   ar
    10     4     5   ar
    11     5     6   ar
    12     6     7   ar
    13     7     8   ar
    14     8     9    1
    15     8    10   ar
    16    10    11   ar
    17    11    12   ar
    18    12    19    1
    19    19    20    2
    20    19    21   am
    21    21    23    1
    22    23    24    1
    23    24    32    1
    24    32    33    1
    25    33    34    1
    26    34    35   ar
    27    34    36   ar
    28    24    25    1
    29    25    26   ar
    30    26    27   ar
    31    27    28   ar
    32    28    29   ar
    33    29    30   ar
    34    30    31    1
    35    12     2   ar
    36    30    25   ar
    37    18    13   ar
    38    11     5   ar
    39    21    22    1
@<TRIPOS>MOLECULE
*****
 36 39 0 0 0
SMALL
GASTEIGER

@<TRIPOS>ATOM
      1 C          63.4240   87.8532   12.6986 C.3     1  UNL1        0.0328
      2 C          62.5268   87.4547   11.5644 C.ar    1  UNL1        0.0002
      3 C          62.2043   86.0076   11.3360 C.ar    1  UNL1        0.0774
      4 N          61.3071   85.6091   10.2020 N.ar    1  UNL1       -0.2457
      5 C          60.7323   86.6576    9.2962 C.ar    1  UNL1        0.0814
      6 C          59.8351   86.2590    8.1622 C.ar    1  UNL1        0.0196
      7 C          59.2604   87.3075    7.2565 C.ar    1  UNL1        0.0082
      8 C          59.5828   88.7545    7.4849 C.ar    1  UNL1        0.0347
      9 BR         59.0080   89.8030    6.5791 Br      1  UNL1       -0.0490
     10 C          60.4800   89.1531    8.6189 C.ar    1  UNL1        0.0083
     11 C          61.0548   88.1046    9.5246 C.ar    1  UNL1        0.0222
     12 C          61.9520   88.5031   10.6588 C.ar    1  UNL1        0.0523
     13 C          62.7792   84.9592   12.2418 C.ar    1  UNL1        0.0173
     14 C          62.3830   84.9182   13.6879 C.ar    1  UNL1        0.0015
     15 C          62.9578   83.8698   14.5936 C.ar    1  UNL1        0.0000
     16 C          63.9288   82.8622   14.0531 C.ar    1  UNL1        0.0000
     17 C          64.3249   82.9032   12.6070 C.ar    1  UNL1        0.0000
     18 C          63.7501   83.9516   11.7013 C.ar    1  UNL1        0.0015
     19 C          62.2745   89.9502   10.8871 C.2     1  UNL1        0.2456
     20 O          61.2777   90.8427   11.5653 O.2     1  UNL1       -0.2702
     21 N          63.5937   90.5047   10.4373 N.am    1  UNL1       -0.3005
     22 H          64.2479   89.9189    9.9922 H       1  UNL1        0.1497
     23 C          63.9161   91.9517   10.6657 C.3     1  UNL1        0.0940
     24 C          65.2027   92.3370   11.3337 C.3     1  UNL1        0.0431
     25 C          66.3567   92.8288   10.5113 C.ar    1  UNL1       -0.0103
     26 C          67.4206   91.8709   10.0636 C.ar    1  UNL1       -0.0034
     27 C          68.5747   92.3627    9.2412 C.ar    1  UNL1       -0.0003
     28 C          68.6648   93.8124    8.8666 C.ar    1  UNL1        0.0008
     29 C          67.6009   94.7703    9.3144 C.ar    1  UNL1        0.0111
     30 C          66.4469   94.2785   10.1367 C.ar    1  UNL1        0.0537
     31 CL         65.3829   95.2364   10.5845 Cl      1  UNL1       -0.0826
     32 C          65.3352   92.2306   12.8240 C.3     1  UNL1        0.0120
     33 C          66.4480   92.9459   13.5310 C.3     1  UNL1        0.0421
     34 C          67.6362   92.1776   14.0292 C.2     1  UNL1        0.0503
     35 O          68.8286   91.9811   13.1407 O.co2   1  UNL1       -0.5492
     36 O          67.6319   91.6059   15.4160 O.co2   1  UNL1       -0.5492
@<TRIPOS>UNITY_ATOM_ATTR
35 1
charge -1
@<TRIPOS>BOND
     1     1     2    1
     2     2     3   ar
     3     3    13    1
     4    13    14   ar
     5    14    15   ar
     6    15    16   ar
     7    16    17   ar
     8    17    18   ar
     9     3     4   ar
    10     4     5   ar
    11     5     6   ar
    12     6     7   ar
    13     7     8   ar
    14     8     9    1
    15     8    10   ar
    16    10    11   ar
    17    11    12   ar
    18    12    19    1
    19    19    20    2
    20    19    21   am
    21    21    23    1
    22    23    24    1
    23    24    32    1
    24    32    33    1
    25    33    34    1
    26    34    35   ar
    27    34    36   ar
    28    24    25    1
    29    25    26   ar
    30    26    27   ar
    31    27    28   ar
    32    28    29   ar
    33    29    30   ar
    34    30    31    1
    35    12     2   ar
    36    30    25   ar
    37    18    13   ar
    38    11     5   ar
    39    21    22    1
@<TRIPOS>MOLECULE
*****
 36 39 0 0 0
SMALL
GASTEIGER

@<TRIPOS>ATOM
      1 C          63.4504   87.1514   12.9867 C.3     1  UNL1        0.0328
      2 C          62.6180   86.8757   11.7696 C.ar    1  UNL1        0.0002
      3 C          62.3717   85.4617   11.3340 C.ar    1  UNL1        0.0774
      4 N          61.5393   85.1860   10.1170 N.ar    1  UNL1       -0.2457
      5 C          60.9531   86.3244    9.3356 C.ar    1  UNL1        0.0814
      6 C          60.1207   86.0487    8.1186 C.ar    1  UNL1        0.0196
      7 C          59.5346   87.1870    7.3373 C.ar    1  UNL1        0.0082
      8 C          59.7809   88.6011    7.7729 C.ar    1  UNL1        0.0347
      9 BR         59.1947   89.7395    6.9915 Br      1  UNL1       -0.0490
     10 C          60.6133   88.8768    8.9899 C.ar    1  UNL1        0.0083
     11 C          61.1994   87.7384    9.7712 C.ar    1  UNL1        0.0222
     12 C          62.0318   88.0141   10.9883 C.ar    1  UNL1        0.0523
     13 C          62.9579   84.3233   12.1154 C.ar    1  UNL1        0.0173
     14 C          63.9348   83.3904   11.4632 C.ar    1  UNL1        0.0015
     15 C          64.5209   82.2521   12.2446 C.ar    1  UNL1        0.0000
     16 C          64.1301   82.0466   13.6782 C.ar    1  UNL1        0.0000
     17 C          63.1532   82.9795   14.3303 C.ar    1  UNL1        0.0000
     18 C          62.5671   84.1178   13.5489 C.ar    1  UNL1        0.0015
     19 C          62.2781   89.4281   11.4239 C.2     1  UNL1        0.2456
     20 O          61.3561   90.0801   12.4112 O.2     1  UNL1       -0.2702
     21 N          63.4464   90.1902   10.8722 N.am    1  UNL1       -0.3005
     22 H          64.0516   89.7623   10.2242 H       1  UNL1        0.1497
     23 C          63.6927   91.6043   11.3078 C.3     1  UNL1        0.0940
     24 C          65.0972   92.1105   11.4533 C.3     1  UNL1        0.0431
     25 C          65.6757   92.3350   12.8188 C.ar    1  UNL1       -0.0103
     26 C          65.6770   91.2226   13.8251 C.ar    1  UNL1       -0.0034
     27 C          66.2557   91.4472   15.1907 C.ar    1  UNL1       -0.0003
     28 C          66.8329   92.7842   15.5500 C.ar    1  UNL1        0.0008
     29 C          66.8316   93.8966   14.5438 C.ar    1  UNL1        0.0111
     30 C          66.2530   93.6721   13.1783 C.ar    1  UNL1        0.0537
     31 CL         66.2517   94.7845   12.1720 Cl      1  UNL1       -0.0826
     32 C          65.9231   92.3921   10.2332 C.3     1  UNL1        0.0120
     33 C          67.4108   92.2055   10.2751 C.3     1  UNL1        0.0421
     34 C          68.2819   92.8953    9.2675 C.2     1  UNL1        0.0503
     35 O          68.6525   94.3362    9.4578 O.co2   1  UNL1       -0.5492
     36 O          68.7824   92.1440    8.0695 O.co2   1  UNL1       -0.5492
@<TRIPOS>UNITY_ATOM_ATTR
35 1
charge -1
@<TRIPOS>BOND
     1     1     2    1
     2     2     3   ar
     3     3    13    1
     4    13    14   ar
     5    14    15   ar
     6    15    16   ar
     7    16    17   ar
     8    17    18   ar
     9     3     4   ar
    10     4     5   ar
    11     5     6   ar
    12     6     7   ar
    13     7     8   ar
    14     8     9    1
    15     8    10   ar
    16    10    11   ar
    17    11    12   ar
    18    12    19    1
    19    19    20    2
    20    19    21   am
    21    21    23    1
    22    23    24    1
    23    24    32    1
    24    32    33    1
    25    33    34    1
    26    34    35   ar
    27    34    36   ar
    28    24    25    1
    29    25    26   ar
    30    26    27   ar
    31    27    28   ar
    32    28    29   ar
    33    29    30   ar
    34    30    31    1
    35    12     2   ar
    36    30    25   ar
    37    18    13   ar
    38    11     5   ar
    39    21    22    1
@<TRIPOS>MOLECULE
*****
 36 39 0 0 0
SMALL
GASTEIGER

@<TRIPOS>ATOM
      1 C          63.7825   91.6579    9.7439 C.3     1  UNL1        0.0328
      2 C          64.1734   91.6914   11.1918 C.ar    1  UNL1        0.0002
      3 C          65.2774   92.5977   11.6498 C.ar    1  UNL1        0.0774
      4 N          65.6683   92.6312   13.0976 N.ar    1  UNL1       -0.2457
      5 C          64.9551   91.7584   14.0874 C.ar    1  UNL1        0.0814
      6 C          65.3459   91.7919   15.5352 C.ar    1  UNL1        0.0196
      7 C          64.6328   90.9191   16.5249 C.ar    1  UNL1        0.0082
      8 C          63.5287   90.0128   16.0669 C.ar    1  UNL1        0.0347
      9 BR         62.8156   89.1400   17.0567 Br      1  UNL1       -0.0490
     10 C          63.1379   89.9793   14.6191 C.ar    1  UNL1        0.0083
     11 C          63.8510   90.8521   13.6294 C.ar    1  UNL1        0.0222
     12 C          63.4602   90.8186   12.1815 C.ar    1  UNL1        0.0523
     13 C          65.9906   93.4705   10.6600 C.ar    1  UNL1        0.0173
     14 C          65.5329   94.8815   10.4379 C.ar    1  UNL1        0.0015
     15 C          66.2461   95.7542    9.4481 C.ar    1  UNL1        0.0000
     16 C          67.4169   95.2159    8.6804 C.ar    1  UNL1        0.0000
     17 C          67.8746   93.8048    8.9025 C.ar    1  UNL1        0.0000
     18 C          67.1614   92.9321    9.8923 C.ar    1  UNL1        0.0015
     19 C          62.3562   89.9123   11.7235 C.2     1  UNL1        0.2456
     20 O          61.0771   90.4943   11.1990 O.2     1  UNL1       -0.2702
     21 N          62.5313   88.4240   11.7900 N.am    1  UNL1       -0.3005
     22 H          63.3708   88.0421   12.1343 H       1  UNL1        0.1497
     23 C          61.4273   87.5178   11.3320 C.3     1  UNL1        0.0940
     24 C          61.6975   86.4745   10.2887 C.3     1  UNL1        0.0431
     25 C          62.5083   85.2608   10.6341 C.ar    1  UNL1       -0.0103
     26 C          62.5708   84.7796   12.0535 C.ar    1  UNL1       -0.0034
     27 C          63.3816   83.5658   12.3989 C.ar    1  UNL1       -0.0003
     28 C          64.1299   82.8331   11.3250 C.ar    1  UNL1        0.0008
     29 C          64.0673   83.3143    9.9056 C.ar    1  UNL1        0.0111
     30 C          63.2566   84.5280    9.5602 C.ar    1  UNL1        0.0537
     31 CL         63.1940   85.0092    8.1408 Cl      1  UNL1       -0.0826
     32 C          61.1570   86.6451    8.8999 C.3     1  UNL1        0.0120
     33 C          60.5464   87.9517    8.4879 C.3     1  UNL1        0.0421
     34 C          59.2994   87.9672    7.6544 C.2     1  UNL1        0.0503
     35 O          59.0316   89.1149    6.7266 O.co2   1  UNL1       -0.5492
     36 O          58.3201   86.8348    7.7487 O.co2   1  UNL1       -0.5492
@<TRIPOS>UNITY_ATOM_ATTR
35 1
charge -1
@<TRIPOS>BOND
     1     1     2    1
     2     2     3   ar
     3     3    13    1
     4    13    14   ar
     5    14    15   ar
     6    15    16   ar
     7    16    17   ar
     8    17    18   ar
     9     3     4   ar
    10     4     5   ar
    11     5     6   ar
    12     6     7   ar
    13     7     8   ar
    14     8     9    1
    15     8    10   ar
    16    10    11   ar
    17    11    12   ar
    18    12    19    1
    19    19    20    2
    20    19    21   am
    21    21    23    1
    22    23    24    1
    23    24    32    1
    24    32    33    1
    25    33    34    1
    26    34    35   ar
    27    34    36   ar
    28    24    25    1
    29    25    26   ar
    30    26    27   ar
    31    27    28   ar
    32    28    29   ar
    33    29    30   ar
    34    30    31    1
    35    12     2   ar
    36    30    25   ar
    37    18    13   ar
    38    11     5   ar
    39    21    22    1
@<TRIPOS>MOLECULE
*****
 36 39 0 0 0
SMALL
GASTEIGER

@<TRIPOS>ATOM
      1 C          61.6768   90.3674   10.5940 C.3     1  UNL1        0.0328
      2 C          62.0099   88.9862   11.0753 C.ar    1  UNL1        0.0002
      3 C          61.4445   87.7894   10.3697 C.ar    1  UNL1        0.0774
      4 N          61.7775   86.4083   10.8510 N.ar    1  UNL1       -0.2457
      5 C          62.6759   86.2240   12.0380 C.ar    1  UNL1        0.0814
      6 C          63.0089   84.8429   12.5193 C.ar    1  UNL1        0.0196
      7 C          63.9073   84.6587   13.7062 C.ar    1  UNL1        0.0082
      8 C          64.4726   85.8555   14.4119 C.ar    1  UNL1        0.0347
      9 BR         65.3711   85.6712   15.5989 Br      1  UNL1       -0.0490
     10 C          64.1397   87.2366   13.9306 C.ar    1  UNL1        0.0083
     11 C          63.2413   87.4208   12.7436 C.ar    1  UNL1        0.0222
     12 C          62.9082   88.8020   12.2623 C.ar    1  UNL1        0.0523
     13 C          60.5461   87.9737    9.1826 C.ar    1  UNL1        0.0173
     14 C          60.3809   89.3333    8.5710 C.ar    1  UNL1        0.0015
     15 C          59.4825   89.5176    7.3840 C.ar    1  UNL1        0.0000
     16 C          58.7493   88.3423    6.8087 C.ar    1  UNL1        0.0000
     17 C          58.9144   86.9827    7.4204 C.ar    1  UNL1        0.0000
     18 C          59.8128   86.7984    8.6073 C.ar    1  UNL1        0.0015
     19 C          63.4736   89.9988   12.9680 C.2     1  UNL1        0.2456
     20 O          63.0119   90.3398   14.3538 O.2     1  UNL1       -0.2702
     21 N          64.5008   90.8546   12.2878 N.am    1  UNL1       -0.3005
     22 H          64.8038   90.6308   11.3782 H       1  UNL1        0.1497
     23 C          65.0662   92.0514   12.9934 C.3     1  UNL1        0.0940
     24 C          66.4469   92.5347   12.6618 C.3     1  UNL1        0.0431
     25 C          66.6447   93.5558   11.5811 C.ar    1  UNL1       -0.0103
     26 C          66.1568   94.9605   11.7781 C.ar    1  UNL1       -0.0034
     27 C          66.3545   95.9817   10.6972 C.ar    1  UNL1       -0.0003
     28 C          67.0402   95.5982    9.4195 C.ar    1  UNL1        0.0008
     29 C          67.5281   94.1935    9.2225 C.ar    1  UNL1        0.0111
     30 C          67.3304   93.1723   10.3032 C.ar    1  UNL1        0.0537
     31 CL         67.8183   91.7676   10.1062 Cl      1  UNL1       -0.0826
     32 C          67.6299   91.9967   13.4110 C.3     1  UNL1        0.0120
     33 C          67.5176   91.7002   14.8770 C.3     1  UNL1        0.0421
     34 C          67.1745   92.7979   15.8401 C.2     1  UNL1        0.0503
     35 O          68.0885   93.9779   15.9890 O.co2   1  UNL1       -0.5492
     36 O          65.9174   92.7155   16.6543 O.co2   1  UNL1       -0.5492
@<TRIPOS>UNITY_ATOM_ATTR
35 1
charge -1
@<TRIPOS>BOND
     1     1     2    1
     2     2     3   ar
     3     3    13    1
     4    13    14   ar
     5    14    15   ar
     6    15    16   ar
     7    16    17   ar
     8    17    18   ar
     9     3     4   ar
    10     4     5   ar
    11     5     6   ar
    12     6     7   ar
    13     7     8   ar
    14     8     9    1
    15     8    10   ar
    16    10    11   ar
    17    11    12   ar
    18    12    19    1
    19    19    20    2
    20    19    21   am
    21    21    23    1
    22    23    24    1
    23    24    32    1
    24    32    33    1
    25    33    34    1
    26    34    35   ar
    27    34    36   ar
    28    24    25    1
    29    25    26   ar
    30    26    27   ar
    31    27    28   ar
    32    28    29   ar
    33    29    30   ar
    34    30    31    1
    35    12     2   ar
    36    30    25   ar
    37    18    13   ar
    38    11     5   ar
    39    21    22    1
@<TRIPOS>MOLECULE
*****
 36 39 0 0 0
SMALL
GASTEIGER

@<TRIPOS>ATOM
      1 C          61.8397   89.6900   10.9070 C.3     1  UNL1        0.0328
      2 C          62.0682   88.2327   11.1793 C.ar    1  UNL1        0.0002
      3 C          61.4403   87.1970   10.2945 C.ar    1  UNL1        0.0774
      4 N          61.6688   85.7397   10.5667 N.ar    1  UNL1       -0.2457
      5 C          62.5253   85.3181   11.7237 C.ar    1  UNL1        0.0814
      6 C          62.7538   83.8609   11.9959 C.ar    1  UNL1        0.0196
      7 C          63.6102   83.4394   13.1530 C.ar    1  UNL1        0.0082
      8 C          64.2382   84.4751   14.0378 C.ar    1  UNL1        0.0347
      9 BR         65.0947   84.0535   15.1949 Br      1  UNL1       -0.0490
     10 C          64.0097   85.9323   13.7656 C.ar    1  UNL1        0.0083
     11 C          63.1532   86.3539   12.6086 C.ar    1  UNL1        0.0222
     12 C          62.9247   87.8112   12.3363 C.ar    1  UNL1        0.0523
     13 C          60.5838   87.6186    9.1374 C.ar    1  UNL1        0.0173
     14 C          59.8012   86.5938    8.3710 C.ar    1  UNL1        0.0015
     15 C          58.9448   87.0154    7.2140 C.ar    1  UNL1        0.0000
     16 C          58.8709   88.4618    6.8234 C.ar    1  UNL1        0.0000
     17 C          59.6535   89.4865    7.5897 C.ar    1  UNL1        0.0000
     18 C          60.5100   89.0649    8.7467 C.ar    1  UNL1        0.0015
     19 C          63.5526   88.8469   13.2212 C.2     1  UNL1        0.2456
     20 O          63.9250   88.5016   14.6325 O.2     1  UNL1       -0.2702
     21 N          63.8082   90.2281   12.6945 N.am    1  UNL1       -0.3005
     22 H          63.5638   90.4547   11.7682 H       1  UNL1        0.1497
     23 C          64.4361   91.2638   13.5794 C.3     1  UNL1        0.0940
     24 C          65.6300   92.0354   13.1004 C.3     1  UNL1        0.0431
     25 C          66.7698   92.3103   14.0358 C.ar    1  UNL1       -0.0103
     26 C          66.5020   92.8797   15.3975 C.ar    1  UNL1       -0.0034
     27 C          67.6420   93.1547   16.3329 C.ar    1  UNL1       -0.0003
     28 C          69.0496   92.8602   15.9067 C.ar    1  UNL1        0.0008
     29 C          69.3174   92.2907   14.5451 C.ar    1  UNL1        0.0111
     30 C          68.1776   92.0158   13.6097 C.ar    1  UNL1        0.0537
     31 CL         68.4454   91.4463   12.2481 Cl      1  UNL1       -0.0826
     32 C          65.6839   92.5320   11.6860 C.3     1  UNL1        0.0120
     33 C          65.8113   94.0011   11.4113 C.3     1  UNL1        0.0421
     34 C          66.6622   94.4801   10.2727 C.2     1  UNL1        0.0503
     35 O          66.2025   95.6286    9.4244 O.co2   1  UNL1       -0.5492
     36 O          67.9728   93.8107    9.9825 O.co2   1  UNL1       -0.5492
@<TRIPOS>UNITY_ATOM_ATTR
35 1
charge -1
@<TRIPOS>BOND
     1     1     2    1
     2     2     3   ar
     3     3    13    1
     4    13    14   ar
     5    14    15   ar
     6    15    16   ar
     7    16    17   ar
     8    17    18   ar
     9     3     4   ar
    10     4     5   ar
    11     5     6   ar
    12     6     7   ar
    13     7     8   ar
    14     8     9    1
    15     8    10   ar
    16    10    11   ar
    17    11    12   ar
    18    12    19    1
    19    19    20    2
    20    19    21   am
    21    21    23    1
    22    23    24    1
    23    24    32    1
    24    32    33    1
    25    33    34    1
    26    34    35   ar
    27    34    36   ar
    28    24    25    1
    29    25    26   ar
    30    26    27   ar
    31    27    28   ar
    32    28    29   ar
    33    29    30   ar
    34    30    31    1
    35    12     2   ar
    36    30    25   ar
    37    18    13   ar
    38    11     5   ar
    39    21    22    1
@<TRIPOS>MOLECULE
*****
 36 39 0 0 0
SMALL
GASTEIGER

@<TRIPOS>ATOM
      1 C          61.7563   86.4155   11.4220 C.3     1  UNL1        0.0328
      2 C          62.2979   87.8126   11.3530 C.ar    1  UNL1        0.0002
      3 C          61.8977   88.7173   10.2255 C.ar    1  UNL1        0.0774
      4 N          62.4393   90.1143   10.1564 N.ar    1  UNL1       -0.2457
      5 C          63.3811   90.6068   11.2149 C.ar    1  UNL1        0.0814
      6 C          63.9227   92.0039   11.1459 C.ar    1  UNL1        0.0196
      7 C          64.8645   92.4963   12.2044 C.ar    1  UNL1        0.0082
      8 C          65.2648   91.5916   13.3319 C.ar    1  UNL1        0.0347
      9 BR         66.2066   92.0841   14.3905 Br      1  UNL1       -0.0490
     10 C          64.7232   90.1946   13.4010 C.ar    1  UNL1        0.0083
     11 C          63.7814   89.7022   12.3425 C.ar    1  UNL1        0.0222
     12 C          63.2397   88.3050   12.4115 C.ar    1  UNL1        0.0523
     13 C          60.9558   88.2248    9.1669 C.ar    1  UNL1        0.0173
     14 C          60.8851   86.7608    8.8482 C.ar    1  UNL1        0.0015
     15 C          59.9433   86.2684    7.7897 C.ar    1  UNL1        0.0000
     16 C          59.0722   87.2400    7.0499 C.ar    1  UNL1        0.0000
     17 C          59.1429   88.7040    7.3687 C.ar    1  UNL1        0.0000
     18 C          60.0847   89.1964    8.4272 C.ar    1  UNL1        0.0015
     19 C          63.6400   87.4003   13.5391 C.2     1  UNL1        0.2456
     20 O          63.7435   87.9415   14.9342 O.2     1  UNL1       -0.2702
     21 N          63.9367   85.9545   13.2715 N.am    1  UNL1       -0.3005
     22 H          63.8688   85.5993   12.3558 H       1  UNL1        0.1497
     23 C          64.3369   85.0498   14.3990 C.3     1  UNL1        0.0940
     24 C          63.3492   84.0717   14.9626 C.3     1  UNL1        0.0431
     25 C          63.0113   82.8243   14.2014 C.ar    1  UNL1       -0.0103
     26 C          61.8286   81.9954   14.6067 C.ar    1  UNL1       -0.0034
     27 C          61.4907   80.7479   13.8454 C.ar    1  UNL1       -0.0003
     28 C          62.3354   80.3292   12.6788 C.ar    1  UNL1        0.0008
     29 C          63.5181   81.1581   12.2734 C.ar    1  UNL1        0.0111
     30 C          63.8560   82.4055   13.0347 C.ar    1  UNL1        0.0537
     31 CL         65.0387   83.2344   12.6293 Cl      1  UNL1       -0.0826
     32 C          62.6994   84.3411   16.2874 C.3     1  UNL1        0.0120
     33 C          63.2479   85.4072   17.1888 C.3     1  UNL1        0.0421
     34 C          62.3372   86.4627   17.7427 C.2     1  UNL1        0.0503
     35 O          61.0522   86.7882   17.0407 O.co2   1  UNL1       -0.5492
     36 O          62.7116   87.1927   18.9985 O.co2   1  UNL1       -0.5492
@<TRIPOS>UNITY_ATOM_ATTR
35 1
charge -1
@<TRIPOS>BOND
     1     1     2    1
     2     2     3   ar
     3     3    13    1
     4    13    14   ar
     5    14    15   ar
     6    15    16   ar
     7    16    17   ar
     8    17    18   ar
     9     3     4   ar
    10     4     5   ar
    11     5     6   ar
    12     6     7   ar
    13     7     8   ar
    14     8     9    1
    15     8    10   ar
    16    10    11   ar
    17    11    12   ar
    18    12    19    1
    19    19    20    2
    20    19    21   am
    21    21    23    1
    22    23    24    1
    23    24    32    1
    24    32    33    1
    25    33    34    1
    26    34    35   ar
    27    34    36   ar
    28    24    25    1
    29    25    26   ar
    30    26    27   ar
    31    27    28   ar
    32    28    29   ar
    33    29    30   ar
    34    30    31    1
    35    12     2   ar
    36    30    25   ar
    37    18    13   ar
    38    11     5   ar
    39    21    22    1
