@<TRIPOS>MOLECULE
*****
 28 31 0 0 0
SMALL
GASTEIGER

@<TRIPOS>ATOM
      1 C          66.0093   93.8628   12.1760 C.2     1  UNL1        0.0919
      2 C          66.6799   94.1102   13.4947 C.2     1  UNL1        0.0183
      3 C          66.5513   93.1061   14.6016 C.2     1  UNL1        0.0511
      4 C          65.7522   91.8545   14.3898 C.2     1  UNL1        0.2322
      5 N          65.4500   90.6924   15.2887 N.2     1  UNL1       -0.0308
      6 C          64.5926   89.7267   14.5256 C.2     1  UNL1        0.3767
      7 N          64.3649   90.2920   13.1550 N.2     1  UNL1       -0.0346
      8 C          65.0816   91.6071   13.0711 C.2     1  UNL1        0.2191
      9 C          65.2101   92.6113   11.9642 C.3     1  UNL1        0.1226
     10 C          64.0570   88.4243   15.0423 C.ar    1  UNL1        0.1061
     11 C          63.5118   88.3381   16.4371 C.ar    1  UNL1        0.0141
     12 C          62.9762   87.0359   16.9539 C.ar    1  UNL1        0.0614
     13 C          62.9858   85.8197   16.0759 C.ar    1  UNL1        0.2648
     14 O          62.4501   84.5174   16.5927 O.2     1  UNL1       -0.2666
     15 N          63.5309   85.9059   14.6812 N.ar    1  UNL1       -0.2729
     16 C          64.0665   87.2082   14.1644 C.ar    1  UNL1        0.0906
     17 C          63.5404   84.6897   13.8032 C.ar    1  UNL1        0.0669
     18 C          62.8036   84.7020   12.4967 C.ar    1  UNL1        0.0176
     19 C          62.8131   83.4858   11.6188 C.ar    1  UNL1        0.0015
     20 C          63.5595   82.2573   12.0473 C.ar    1  UNL1        0.0001
     21 C          64.2963   82.2450   13.3538 C.ar    1  UNL1        0.0015
     22 C          64.2868   83.4611   14.2317 C.ar    1  UNL1        0.0176
     23 S          66.1378   94.8670   11.0692 S.O2    1  UNL1        0.0054
     24 O          66.1172   95.9790   12.0756 O.2     1  UNL1       -0.1689
     25 O          66.1584   93.7549   10.0627 O.2     1  UNL1       -0.1689
     26 C          66.2664   95.8711    9.9623 C.3     1  UNL1        0.1556
     27 C          67.6200   96.8560    7.9754 C.3     1  UNL1        0.0019
     28 C          67.3980   95.7674    8.9833 C.3     1  UNL1        0.0257
@<TRIPOS>BOND
     1    27    28    1
     2    28    26    1
     3    26    23    1
     4    23    24    2
     5    23    25    2
     6    23     1    1
     7     1     2    2
     8     2     3    1
     9     3     4    2
    10     4     5    1
    11     5     6    2
    12     6    10    1
    13    10    11   ar
    14    11    12   ar
    15    12    13   ar
    16    13    14    2
    17    13    15   ar
    18    15    17    1
    19    17    18   ar
    20    18    19   ar
    21    19    20   ar
    22    20    21   ar
    23    21    22   ar
    24    15    16   ar
    25     6     7    1
    26     7     8    2
    27     8     9    1
    28     9     1    1
    29     8     4    1
    30    16    10   ar
    31    22    17   ar
@<TRIPOS>MOLECULE
*****
 28 31 0 0 0
SMALL
GASTEIGER

@<TRIPOS>ATOM
      1 C          63.4776   82.2482   12.3571 C.2     1  UNL1        0.0919
      2 C          63.7717   81.7610   13.7449 C.2     1  UNL1        0.0183
      3 C          63.9498   82.7449   14.8631 C.2     1  UNL1        0.0511
      4 C          63.8338   84.2158   14.5935 C.2     1  UNL1        0.2322
      5 N          63.9588   85.4132   15.4883 N.2     1  UNL1       -0.0308
      6 C          63.7418   86.6404   14.6535 C.2     1  UNL1        0.3767
      7 N          63.4828   86.2015   13.2427 N.2     1  UNL1       -0.0346
      8 C          63.5396   84.7030   13.2057 C.2     1  UNL1        0.2191
      9 C          63.3615   83.7192   12.0875 C.3     1  UNL1        0.1226
     10 C          63.7777   88.0577   15.1434 C.ar    1  UNL1        0.1061
     11 C          63.1778   88.4070   16.4731 C.ar    1  UNL1        0.0141
     12 C          63.2136   89.8242   16.9631 C.ar    1  UNL1        0.0614
     13 C          63.8493   90.8922   16.1234 C.ar    1  UNL1        0.2648
     14 O          63.8852   92.3095   16.6134 O.2     1  UNL1       -0.2666
     15 N          64.4493   90.5430   14.7937 N.ar    1  UNL1       -0.2729
     16 C          64.4134   89.1257   14.3037 C.ar    1  UNL1        0.0906
     17 C          65.0850   91.6110   13.9539 C.ar    1  UNL1        0.0669
     18 C          66.1420   92.4979   14.5424 C.ar    1  UNL1        0.0176
     19 C          66.7777   93.5659   13.7027 C.ar    1  UNL1        0.0015
     20 C          66.3565   93.7470   12.2745 C.ar    1  UNL1        0.0001
     21 C          65.2995   92.8602   11.6860 C.ar    1  UNL1        0.0015
     22 C          64.6638   91.7922   12.5258 C.ar    1  UNL1        0.0176
     23 S          63.2995   81.2644   11.2389 S.O2    1  UNL1        0.0054
     24 O          63.8313   82.2743   10.2656 O.2     1  UNL1       -0.1689
     25 O          62.7676   80.2545   12.2122 O.2     1  UNL1       -0.1689
     26 C          63.1213   80.2806   10.1207 C.3     1  UNL1        0.1556
     27 C          63.1474   77.6828   10.0969 C.3     1  UNL1        0.0019
     28 C          62.4334   78.9722   10.3753 C.3     1  UNL1        0.0257
@<TRIPOS>BOND
     1    27    28    1
     2    28    26    1
     3    26    23    1
     4    23    24    2
     5    23    25    2
     6    23     1    1
     7     1     2    2
     8     2     3    1
     9     3     4    2
    10     4     5    1
    11     5     6    2
    12     6    10    1
    13    10    11   ar
    14    11    12   ar
    15    12    13   ar
    16    13    14    2
    17    13    15   ar
    18    15    17    1
    19    17    18   ar
    20    18    19   ar
    21    19    20   ar
    22    20    21   ar
    23    21    22   ar
    24    15    16   ar
    25     6     7    1
    26     7     8    2
    27     8     9    1
    28     9     1    1
    29     8     4    1
    30    16    10   ar
    31    22    17   ar
@<TRIPOS>MOLECULE
*****
 28 31 0 0 0
SMALL
GASTEIGER

@<TRIPOS>ATOM
      1 C          62.7645   84.4127   13.5692 C.2     1  UNL1        0.0919
      2 C          62.1510   84.8622   12.2764 C.2     1  UNL1        0.0183
      3 C          62.3434   86.2733   11.8055 C.2     1  UNL1        0.0511
      4 C          63.1494   87.2349   12.6274 C.2     1  UNL1        0.2322
      5 N          63.5080   88.6766   12.4207 N.2     1  UNL1       -0.0308
      6 C          64.3432   89.1182   13.5858 C.2     1  UNL1        0.3767
      7 N          64.5007   87.9494   14.5127 N.2     1  UNL1       -0.0346
      8 C          63.7629   86.7854   13.9203 C.2     1  UNL1        0.2191
      9 C          63.5705   85.3743   14.3912 C.3     1  UNL1        0.1226
     10 C          64.9196   90.4882   13.7885 C.ar    1  UNL1        0.1061
     11 C          65.0182   91.0635   15.1703 C.ar    1  UNL1        0.0141
     12 C          65.5946   92.4334   15.3730 C.ar    1  UNL1        0.0614
     13 C          66.0724   93.2280   14.1940 C.ar    1  UNL1        0.2648
     14 O          66.6488   94.5979   14.3967 O.2     1  UNL1       -0.2666
     15 N          65.9738   92.6527   12.8122 N.ar    1  UNL1       -0.2729
     16 C          65.3974   91.2828   12.6095 C.ar    1  UNL1        0.0906
     17 C          66.4517   93.4474   11.6331 C.ar    1  UNL1        0.0669
     18 C          66.1291   94.9089   11.5332 C.ar    1  UNL1        0.0176
     19 C          66.6070   95.7035   10.3542 C.ar    1  UNL1        0.0015
     20 C          67.4074   95.0366    9.2750 C.ar    1  UNL1        0.0001
     21 C          67.7299   93.5751    9.3748 C.ar    1  UNL1        0.0015
     22 C          67.2521   92.7805   10.5539 C.ar    1  UNL1        0.0176
     23 S          62.5721   83.0016   14.0401 S.O2    1  UNL1        0.0054
     24 O          62.7085   83.4577   15.4626 O.2     1  UNL1       -0.1689
     25 O          62.4357   82.5455   12.6177 O.2     1  UNL1       -0.1689
     26 C          62.3797   81.5905   14.5110 C.3     1  UNL1        0.1556
     27 C          60.1000   80.3902   14.1762 C.3     1  UNL1        0.0019
     28 C          61.5082   80.6516   13.7306 C.3     1  UNL1        0.0257
@<TRIPOS>BOND
     1    27    28    1
     2    28    26    1
     3    26    23    1
     4    23    24    2
     5    23    25    2
     6    23     1    1
     7     1     2    2
     8     2     3    1
     9     3     4    2
    10     4     5    1
    11     5     6    2
    12     6    10    1
    13    10    11   ar
    14    11    12   ar
    15    12    13   ar
    16    13    14    2
    17    13    15   ar
    18    15    17    1
    19    17    18   ar
    20    18    19   ar
    21    19    20   ar
    22    20    21   ar
    23    21    22   ar
    24    15    16   ar
    25     6     7    1
    26     7     8    2
    27     8     9    1
    28     9     1    1
    29     8     4    1
    30    16    10   ar
    31    22    17   ar
@<TRIPOS>MOLECULE
*****
 28 31 0 0 0
SMALL
GASTEIGER

@<TRIPOS>ATOM
      1 C          62.8614   83.9329   14.0561 C.2     1  UNL1        0.0919
      2 C          62.6053   84.0834   15.5263 C.2     1  UNL1        0.0183
      3 C          62.8952   85.3874   16.2085 C.2     1  UNL1        0.0511
      4 C          63.4412   86.5410   15.4205 C.2     1  UNL1        0.2322
      5 N          63.8210   87.9370   15.8166 N.2     1  UNL1       -0.0308
      6 C          64.3118   88.6493   14.5912 C.2     1  UNL1        0.3767
      7 N          64.2354   87.6936   13.4376 N.2     1  UNL1       -0.0346
      8 C          63.6972   86.3906   13.9502 C.2     1  UNL1        0.2191
      9 C          63.4074   85.0865   13.2680 C.3     1  UNL1        0.1226
     10 C          64.7944   90.0683   14.5301 C.ar    1  UNL1        0.1061
     11 C          64.7164   90.9402   15.7482 C.ar    1  UNL1        0.0141
     12 C          65.1989   92.3591   15.6871 C.ar    1  UNL1        0.0614
     13 C          65.7595   92.9062   14.4079 C.ar    1  UNL1        0.2648
     14 O          66.2421   94.3252   14.3468 O.2     1  UNL1       -0.2666
     15 N          65.8376   92.0343   13.1898 N.ar    1  UNL1       -0.2729
     16 C          65.3550   90.6154   13.2509 C.ar    1  UNL1        0.0906
     17 C          66.3982   92.5815   11.9106 C.ar    1  UNL1        0.0669
     18 C          65.7422   93.7551   11.2456 C.ar    1  UNL1        0.0176
     19 C          66.3029   94.3022    9.9664 C.ar    1  UNL1        0.0015
     20 C          67.5195   93.6757    9.3523 C.ar    1  UNL1        0.0001
     21 C          68.1755   92.5021   10.0172 C.ar    1  UNL1        0.0015
     22 C          67.6149   91.9550   11.2964 C.ar    1  UNL1        0.0176
     23 S          62.5715   82.6289   13.3739 S.O2    1  UNL1        0.0054
     24 O          62.6754   83.3043   12.0386 O.2     1  UNL1       -0.1689
     25 O          62.4676   81.9534   14.7091 O.2     1  UNL1       -0.1689
     26 C          62.2816   81.3248   12.6916 C.3     1  UNL1        0.1556
     27 C          62.6850   79.6764   10.7244 C.3     1  UNL1        0.0019
     28 C          62.9908   80.9706   11.4182 C.3     1  UNL1        0.0257
@<TRIPOS>BOND
     1    27    28    1
     2    28    26    1
     3    26    23    1
     4    23    24    2
     5    23    25    2
     6    23     1    1
     7     1     2    2
     8     2     3    1
     9     3     4    2
    10     4     5    1
    11     5     6    2
    12     6    10    1
    13    10    11   ar
    14    11    12   ar
    15    12    13   ar
    16    13    14    2
    17    13    15   ar
    18    15    17    1
    19    17    18   ar
    20    18    19   ar
    21    19    20   ar
    22    20    21   ar
    23    21    22   ar
    24    15    16   ar
    25     6     7    1
    26     7     8    2
    27     8     9    1
    28     9     1    1
    29     8     4    1
    30    16    10   ar
    31    22    17   ar
@<TRIPOS>MOLECULE
*****
 28 31 0 0 0
SMALL
GASTEIGER

@<TRIPOS>ATOM
      1 C          66.6527   92.2832   14.1545 C.2     1  UNL1        0.0919
      2 C          66.5688   93.2823   13.0389 C.2     1  UNL1        0.0183
      3 C          65.5712   93.0920   11.9351 C.2     1  UNL1        0.0511
      4 C          64.6574   91.9026   11.9469 C.2     1  UNL1        0.2322
      5 N          63.5819   91.4536   11.0025 N.2     1  UNL1       -0.0308
      6 C          63.0011   90.1770   11.5345 C.2     1  UNL1        0.3767
      7 N          63.7176   89.8370   12.8077 N.2     1  UNL1       -0.0346
      8 C          64.7413   90.9034   13.0625 C.2     1  UNL1        0.2191
      9 C          65.7390   91.0938   14.1663 C.3     1  UNL1        0.1226
     10 C          61.8975   89.3804   10.9040 C.ar    1  UNL1        0.1061
     11 C          60.4670   89.6898   11.2327 C.ar    1  UNL1        0.0141
     12 C          59.3634   88.8932   10.6022 C.ar    1  UNL1        0.0614
     13 C          59.6903   87.7873    9.6431 C.ar    1  UNL1        0.2648
     14 O          58.5867   86.9906    9.0126 O.2     1  UNL1       -0.2666
     15 N          61.1208   87.4779    9.3144 N.ar    1  UNL1       -0.2729
     16 C          62.2244   88.2745    9.9449 C.ar    1  UNL1        0.0906
     17 C          61.4477   86.3719    8.3552 C.ar    1  UNL1        0.0669
     18 C          62.7888   85.7025    8.4112 C.ar    1  UNL1        0.0176
     19 C          63.1156   84.5965    7.4521 C.ar    1  UNL1        0.0015
     20 C          62.1012   84.1600    6.4369 C.ar    1  UNL1        0.0001
     21 C          60.7601   84.8295    6.3808 C.ar    1  UNL1        0.0015
     22 C          60.4333   85.9354    7.3400 C.ar    1  UNL1        0.0176
     23 S          67.6504   92.4735   15.2583 S.O2    1  UNL1        0.0054
     24 O          66.5304   92.6254   16.2445 O.2     1  UNL1       -0.1689
     25 O          68.7705   92.3217   14.2722 O.2     1  UNL1       -0.1689
     26 C          68.6481   92.6639   16.3622 C.3     1  UNL1        0.1556
     27 C          69.2906   95.1689   16.1131 C.3     1  UNL1        0.0019
     28 C          69.6960   93.7312   16.2502 C.3     1  UNL1        0.0257
@<TRIPOS>BOND
     1    27    28    1
     2    28    26    1
     3    26    23    1
     4    23    24    2
     5    23    25    2
     6    23     1    1
     7     1     2    2
     8     2     3    1
     9     3     4    2
    10     4     5    1
    11     5     6    2
    12     6    10    1
    13    10    11   ar
    14    11    12   ar
    15    12    13   ar
    16    13    14    2
    17    13    15   ar
    18    15    17    1
    19    17    18   ar
    20    18    19   ar
    21    19    20   ar
    22    20    21   ar
    23    21    22   ar
    24    15    16   ar
    25     6     7    1
    26     7     8    2
    27     8     9    1
    28     9     1    1
    29     8     4    1
    30    16    10   ar
    31    22    17   ar
@<TRIPOS>MOLECULE
*****
 28 31 0 0 0
SMALL
GASTEIGER

@<TRIPOS>ATOM
      1 C          59.2798   89.7353    6.5825 C.2     1  UNL1        0.0919
      2 C          58.5457   88.4290    6.5148 C.2     1  UNL1        0.0183
      3 C          58.8650   87.3376    7.4930 C.2     1  UNL1        0.0511
      4 C          59.9185   87.5526    8.5390 C.2     1  UNL1        0.2322
      5 N          60.4454   86.6677    9.6295 N.2     1  UNL1       -0.0308
      6 C          61.5052   87.4271   10.3713 C.2     1  UNL1        0.3767
      7 N          61.6332   88.7814    9.7391 N.2     1  UNL1       -0.0346
      8 C          60.6526   88.8589    8.6067 C.2     1  UNL1        0.2191
      9 C          60.3332   89.9502    7.6284 C.3     1  UNL1        0.1226
     10 C          62.2978   86.9211   11.5400 C.ar    1  UNL1        0.1061
     11 C          63.0782   87.8806   12.3888 C.ar    1  UNL1        0.0141
     12 C          63.8707   87.3746   13.5574 C.ar    1  UNL1        0.0614
     13 C          63.8829   85.9092   13.8773 C.ar    1  UNL1        0.2648
     14 O          64.6754   85.4031   15.0460 O.2     1  UNL1       -0.2666
     15 N          63.1025   84.9497   13.0285 N.ar    1  UNL1       -0.2729
     16 C          62.3099   85.4557   11.8599 C.ar    1  UNL1        0.0906
     17 C          63.1147   83.4842   13.3484 C.ar    1  UNL1        0.0669
     18 C          64.2394   82.6196   12.8613 C.ar    1  UNL1        0.0176
     19 C          64.2515   81.1542   13.1812 C.ar    1  UNL1        0.0015
     20 C          63.1390   80.5534   13.9883 C.ar    1  UNL1        0.0001
     21 C          62.0143   81.4181   14.4754 C.ar    1  UNL1        0.0015
     22 C          62.0021   82.8835   14.1555 C.ar    1  UNL1        0.0176
     23 S          58.9605   90.8267    5.6042 S.O2    1  UNL1        0.0054
     24 O          60.4169   90.9506    5.2671 O.2     1  UNL1       -0.1689
     25 O          57.5042   90.7028    5.9414 O.2     1  UNL1       -0.1689
     26 C          58.6412   91.9180    4.6260 C.3     1  UNL1        0.1556
     27 C          59.6665   92.8906    2.4459 C.3     1  UNL1        0.0019
     28 C          59.7502   92.6432    3.9230 C.3     1  UNL1        0.0257
@<TRIPOS>BOND
     1    27    28    1
     2    28    26    1
     3    26    23    1
     4    23    24    2
     5    23    25    2
     6    23     1    1
     7     1     2    2
     8     2     3    1
     9     3     4    2
    10     4     5    1
    11     5     6    2
    12     6    10    1
    13    10    11   ar
    14    11    12   ar
    15    12    13   ar
    16    13    14    2
    17    13    15   ar
    18    15    17    1
    19    17    18   ar
    20    18    19   ar
    21    19    20   ar
    22    20    21   ar
    23    21    22   ar
    24    15    16   ar
    25     6     7    1
    26     7     8    2
    27     8     9    1
    28     9     1    1
    29     8     4    1
    30    16    10   ar
    31    22    17   ar
@<TRIPOS>MOLECULE
*****
 28 31 0 0 0
SMALL
GASTEIGER

@<TRIPOS>ATOM
      1 C          61.0977   87.1380    8.9092 C.2     1  UNL1        0.0919
      2 C          60.2152   88.3425    8.7664 C.2     1  UNL1        0.0183
      3 C          60.3255   89.4734    9.7456 C.2     1  UNL1        0.0511
      4 C          61.3182   89.3999   10.8676 C.2     1  UNL1        0.2322
      5 N          61.6512   90.3527   11.9773 N.2     1  UNL1       -0.0308
      6 C          62.7395   89.7371   12.8059 C.2     1  UNL1        0.3767
      7 N          63.0792   88.4038   12.2084 N.2     1  UNL1       -0.0346
      8 C          62.2007   88.1955   11.0105 C.2     1  UNL1        0.2191
      9 C          62.0905   87.0645   10.0313 C.3     1  UNL1        0.1226
     10 C          63.3764   90.3476   14.0191 C.ar    1  UNL1        0.1061
     11 C          62.6218   90.4036   15.3143 C.ar    1  UNL1        0.0141
     12 C          63.2586   91.0141   16.5275 C.ar    1  UNL1        0.0614
     13 C          64.6499   91.5686   16.4454 C.ar    1  UNL1        0.2648
     14 O          65.2867   92.1791   17.6586 O.2     1  UNL1       -0.2666
     15 N          65.4044   91.5126   15.1502 N.ar    1  UNL1       -0.2729
     16 C          64.7677   90.9021   13.9371 C.ar    1  UNL1        0.0906
     17 C          66.7958   92.0672   15.0682 C.ar    1  UNL1        0.0669
     18 C          67.2769   93.0416   16.1021 C.ar    1  UNL1        0.0176
     19 C          68.6682   93.5961   16.0200 C.ar    1  UNL1        0.0015
     20 C          69.5784   93.1761   14.9041 C.ar    1  UNL1        0.0001
     21 C          69.0973   92.2017   13.8703 C.ar    1  UNL1        0.0015
     22 C          67.7060   91.6472   13.9523 C.ar    1  UNL1        0.0176
     23 S          60.9875   86.0071    7.9300 S.O2    1  UNL1        0.0054
     24 O          59.5637   86.3878    7.6507 O.2     1  UNL1       -0.1689
     25 O          62.4112   85.6264    8.2094 O.2     1  UNL1       -0.1689
     26 C          60.8772   84.8762    6.9508 C.3     1  UNL1        0.1556
     27 C          61.9843   84.1643    4.7109 C.3     1  UNL1        0.0019
     28 C          62.0858   84.4275    6.1841 C.3     1  UNL1        0.0257
@<TRIPOS>BOND
     1    27    28    1
     2    28    26    1
     3    26    23    1
     4    23    24    2
     5    23    25    2
     6    23     1    1
     7     1     2    2
     8     2     3    1
     9     3     4    2
    10     4     5    1
    11     5     6    2
    12     6    10    1
    13    10    11   ar
    14    11    12   ar
    15    12    13   ar
    16    13    14    2
    17    13    15   ar
    18    15    17    1
    19    17    18   ar
    20    18    19   ar
    21    19    20   ar
    22    20    21   ar
    23    21    22   ar
    24    15    16   ar
    25     6     7    1
    26     7     8    2
    27     8     9    1
    28     9     1    1
    29     8     4    1
    30    16    10   ar
    31    22    17   ar
@<TRIPOS>MOLECULE
*****
 28 31 0 0 0
SMALL
GASTEIGER

@<TRIPOS>ATOM
      1 C          61.9950   85.8672    9.4766 C.2     1  UNL1        0.0919
      2 C          62.4102   84.7639   10.4042 C.2     1  UNL1        0.0183
      3 C          62.9483   85.0912   11.7655 C.2     1  UNL1        0.0511
      4 C          63.0712   86.5218   12.1993 C.2     1  UNL1        0.2322
      5 N          63.5625   87.1462   13.4717 N.2     1  UNL1       -0.0308
      6 C          63.4510   88.6354   13.3305 C.2     1  UNL1        0.3767
      7 N          62.8907   88.9314   11.9709 N.2     1  UNL1       -0.0346
      8 C          62.6560   87.6251   11.2718 C.2     1  UNL1        0.2191
      9 C          62.1179   87.2978    9.9105 C.3     1  UNL1        0.1226
     10 C          63.8326   89.6503   14.3670 C.ar    1  UNL1        0.1061
     11 C          62.8797   89.9845   15.4761 C.ar    1  UNL1        0.0141
     12 C          63.2613   90.9994   16.5126 C.ar    1  UNL1        0.0614
     13 C          64.5959   91.6801   16.4399 C.ar    1  UNL1        0.2648
     14 O          64.9776   92.6951   17.4764 O.2     1  UNL1       -0.2666
     15 N          65.5489   91.3460   15.3308 N.ar    1  UNL1       -0.2729
     16 C          65.1672   90.3311   14.2943 C.ar    1  UNL1        0.0906
     17 C          66.8835   92.0268   15.2581 C.ar    1  UNL1        0.0669
     18 C          67.2296   93.1057   16.2411 C.ar    1  UNL1        0.0176
     19 C          68.5642   93.7865   16.1684 C.ar    1  UNL1        0.0015
     20 C          69.5528   93.3884   15.1128 C.ar    1  UNL1        0.0001
     21 C          69.2067   92.3095   14.1298 C.ar    1  UNL1        0.0015
     22 C          67.8721   91.6287   14.2025 C.ar    1  UNL1        0.0176
     23 S          61.4568   85.5399    8.1153 S.O2    1  UNL1        0.0054
     24 O          62.7823   84.9509    7.7330 O.2     1  UNL1       -0.1689
     25 O          60.1314   86.1289    8.4976 O.2     1  UNL1       -0.1689
     26 C          60.9187   85.2126    6.7539 C.3     1  UNL1        0.1556
     27 C          61.8762   84.3165    4.5112 C.3     1  UNL1        0.0019
     28 C          61.5284   84.0997    5.9541 C.3     1  UNL1        0.0257
@<TRIPOS>BOND
     1    27    28    1
     2    28    26    1
     3    26    23    1
     4    23    24    2
     5    23    25    2
     6    23     1    1
     7     1     2    2
     8     2     3    1
     9     3     4    2
    10     4     5    1
    11     5     6    2
    12     6    10    1
    13    10    11   ar
    14    11    12   ar
    15    12    13   ar
    16    13    14    2
    17    13    15   ar
    18    15    17    1
    19    17    18   ar
    20    18    19   ar
    21    19    20   ar
    22    20    21   ar
    23    21    22   ar
    24    15    16   ar
    25     6     7    1
    26     7     8    2
    27     8     9    1
    28     9     1    1
    29     8     4    1
    30    16    10   ar
    31    22    17   ar
@<TRIPOS>MOLECULE
*****
 28 31 0 0 0
SMALL
GASTEIGER

@<TRIPOS>ATOM
      1 C          62.9708   83.0768   12.8758 C.2     1  UNL1        0.0919
      2 C          62.6760   83.7616   11.5743 C.2     1  UNL1        0.0183
      3 C          62.7836   85.2542   11.4709 C.2     1  UNL1        0.0511
      4 C          63.1860   86.0619   12.6690 C.2     1  UNL1        0.2322
      5 N          63.3749   87.5366   12.8679 N.2     1  UNL1       -0.0308
      6 C          63.7865   87.7632   14.2925 C.2     1  UNL1        0.3767
      7 N          63.8519   86.4286   14.9740 N.2     1  UNL1       -0.0346
      8 C          63.4808   85.3771   13.9705 C.2     1  UNL1        0.2191
      9 C          63.3732   83.8846   14.0740 C.3     1  UNL1        0.1226
     10 C          64.0809   89.0914   14.9246 C.ar    1  UNL1        0.1061
     11 C          63.0453   89.7620   15.7777 C.ar    1  UNL1        0.0141
     12 C          63.3397   91.0900   16.4098 C.ar    1  UNL1        0.0614
     13 C          64.6696   91.7475   16.1886 C.ar    1  UNL1        0.2648
     14 O          64.9641   93.0757   16.8207 O.2     1  UNL1       -0.2666
     15 N          65.7052   91.0769   15.3355 N.ar    1  UNL1       -0.2729
     16 C          65.4108   89.7489   14.7034 C.ar    1  UNL1        0.0906
     17 C          67.0352   91.7345   15.1144 C.ar    1  UNL1        0.0669
     18 C          67.7138   92.4524   16.2431 C.ar    1  UNL1        0.0176
     19 C          69.0437   93.1099   16.0219 C.ar    1  UNL1        0.0015
     20 C          69.6950   93.0495   14.6721 C.ar    1  UNL1        0.0001
     21 C          69.0164   92.3316   13.5433 C.ar    1  UNL1        0.0015
     22 C          67.6865   91.6741   13.7645 C.ar    1  UNL1        0.0176
     23 S          62.8632   81.5843   12.9792 S.O2    1  UNL1        0.0054
     24 O          63.1586   81.6647   14.4476 O.2     1  UNL1       -0.1689
     25 O          62.5679   81.5038   11.5108 O.2     1  UNL1       -0.1689
     26 C          62.7557   80.0917   13.0826 C.3     1  UNL1        0.1556
     27 C          60.3696   80.3231   14.0842 C.3     1  UNL1        0.0019
     28 C          61.5453   79.4689   13.7127 C.3     1  UNL1        0.0257
@<TRIPOS>BOND
     1    27    28    1
     2    28    26    1
     3    26    23    1
     4    23    24    2
     5    23    25    2
     6    23     1    1
     7     1     2    2
     8     2     3    1
     9     3     4    2
    10     4     5    1
    11     5     6    2
    12     6    10    1
    13    10    11   ar
    14    11    12   ar
    15    12    13   ar
    16    13    14    2
    17    13    15   ar
    18    15    17    1
    19    17    18   ar
    20    18    19   ar
    21    19    20   ar
    22    20    21   ar
    23    21    22   ar
    24    15    16   ar
    25     6     7    1
    26     7     8    2
    27     8     9    1
    28     9     1    1
    29     8     4    1
    30    16    10   ar
    31    22    17   ar
