@<TRIPOS>MOLECULE
*****
 35 38 0 0 0
SMALL
GASTEIGER

@<TRIPOS>ATOM
      1 C          60.9842   88.7355    9.4098 C.ar    1  UNL1        0.0126
      2 C          61.6940   87.7148   10.2490 C.ar    1  UNL1       -0.0034
      3 C          61.5292   86.2537    9.9520 C.ar    1  UNL1        0.0068
      4 C          60.6545   85.8134    8.8158 C.ar    1  UNL1       -0.0010
      5 C          59.9446   86.8341    7.9765 C.ar    1  UNL1        0.0109
      6 C          60.1095   88.2951    8.2735 C.ar    1  UNL1        0.0555
      7 CL         59.3996   89.3158    7.4343 Cl      1  UNL1       -0.0825
      8 C          62.2390   85.2331   10.7912 C.3     1  UNL1        0.1667
      9 O          62.0068   85.1872   12.2724 O.3     1  UNL1       -0.3466
     10 C          62.7166   84.1666   13.1116 C.3     1  UNL1        0.1739
     11 C          63.6587   83.1917   12.4697 C.3     1  UNL1        0.1692
     12 O          64.3685   82.1710   13.3089 O.3     1  UNL1       -0.3794
     13 C          63.8909   83.2374   10.9885 C.3     1  UNL1        0.1692
     14 O          64.8329   82.2625   10.3465 O.3     1  UNL1       -0.3794
     15 C          63.1810   84.2582   10.1492 C.3     1  UNL1        0.1709
     16 O          63.4132   84.3039    8.6680 O.3     1  UNL1       -0.3792
     17 H          64.9348   81.6239   12.7424 H       1  UNL1        0.2105
     18 H          64.8678   82.4278    9.3913 H       1  UNL1        0.2105
     19 H          64.0448   83.6113    8.4182 H       1  UNL1        0.2106
     20 C          62.4844   84.1208   14.5928 C.3     1  UNL1        0.1692
     21 O          62.5478   82.8114   15.3218 O.3     1  UNL1       -0.3794
     22 H          61.8211   82.2411   15.0259 H       1  UNL1        0.2105
     23 C          61.1490   90.1965    9.7068 C.3     1  UNL1        0.1595
     24 C          67.3269   93.1792   13.5227 C.3     1  UNL1        0.0321
     25 C          66.0370   92.4627   13.2532 C.ar    1  UNL1       -0.0067
     26 C          65.4966   92.3910   11.8558 C.ar    1  UNL1        0.0359
     27 C          64.2067   91.6744   11.5863 C.ar    1  UNL1        0.1706
     28 N          63.4333   91.4408   10.3223 N.ar    1  UNL1       -0.1471
     29 N          62.2058   90.6516   10.6692 N.ar    1  UNL1       -0.1960
     30 C          62.2205   90.3974   12.1474 C.ar    1  UNL1        0.3526
     31 O          61.1811   89.6434   12.9228 O.2     1  UNL1       -0.2444
     32 N          63.4571   91.0295   12.7142 N.ar    1  UNL1       -0.2400
     33 C          63.9975   91.1012   14.1116 C.ar    1  UNL1        0.0969
     34 C          65.2874   91.8178   14.3811 C.ar    1  UNL1        0.0715
     35 CL         65.8278   91.8894   15.7786 Cl      1  UNL1       -0.0810
@<TRIPOS>BOND
     1    24    25    1
     2    25    26   ar
     3    26    27   ar
     4    27    28   ar
     5    28    29   ar
     6    29    23    1
     7    23     1    1
     8     1     2   ar
     9     2     3   ar
    10     8     3    1
    11     8     9    1
    12     9    10    1
    13    10    20    1
    14    20    21    1
    15    10    11    1
    16    11    12    1
    17    11    13    1
    18    13    14    1
    19    13    15    1
    20    15    16    1
    21     3     4   ar
    22     4     5   ar
    23     5     6   ar
    24     6     7    1
    25    29    30   ar
    26    30    31    2
    27    30    32   ar
    28    32    33   ar
    29    33    34   ar
    30    34    35    1
    31    34    25   ar
    32    32    27   ar
    33     6     1   ar
    34    15     8    1
    35    21    22    1
    36    12    17    1
    37    14    18    1
    38    16    19    1
@<TRIPOS>MOLECULE
*****
 35 38 0 0 0
SMALL
GASTEIGER

@<TRIPOS>ATOM
      1 C          61.3394   88.1049   10.8054 C.ar    1  UNL1        0.0126
      2 C          61.8857   87.0026   11.6636 C.ar    1  UNL1       -0.0034
      3 C          62.0924   85.6342   11.0852 C.ar    1  UNL1        0.0068
      4 C          61.7528   85.3679    9.6486 C.ar    1  UNL1       -0.0010
      5 C          61.2065   86.4702    8.7904 C.ar    1  UNL1        0.0109
      6 C          60.9998   87.8387    9.3687 C.ar    1  UNL1        0.0555
      7 CL         60.4535   88.9410    8.5105 Cl      1  UNL1       -0.0825
      8 C          62.6387   84.5319   11.9434 C.3     1  UNL1        0.1667
      9 O          62.3833   83.0998   11.5775 O.3     1  UNL1       -0.3466
     10 C          62.9296   81.9975   12.4356 C.3     1  UNL1        0.1739
     11 C          63.7312   82.3273   13.6598 C.3     1  UNL1        0.1692
     12 O          64.2775   81.2250   14.5180 O.3     1  UNL1       -0.3794
     13 C          63.9866   83.7593   14.0258 C.3     1  UNL1        0.1692
     14 O          64.7883   84.0891   15.2499 O.3     1  UNL1       -0.3794
     15 C          63.4403   84.8617   13.1676 C.3     1  UNL1        0.1709
     16 O          63.6957   86.2937   13.5335 O.3     1  UNL1       -0.3792
     17 H          64.7674   81.6076   15.2627 H       1  UNL1        0.2105
     18 H          64.8587   85.0523   15.3405 H       1  UNL1        0.2105
     19 H          64.2253   86.3305   14.3454 H       1  UNL1        0.2106
     20 C          62.6742   80.5654   12.0697 C.3     1  UNL1        0.1692
     21 O          62.2803   79.5794   13.1291 O.3     1  UNL1       -0.3794
     22 H          63.0165   79.4596   13.7492 H       1  UNL1        0.2105
     23 C          61.1327   89.4734   11.3838 C.3     1  UNL1        0.1595
     24 C          66.5180   92.3098   16.3412 C.3     1  UNL1        0.0321
     25 C          65.7371   92.0634   15.0844 C.ar    1  UNL1       -0.0067
     26 C          64.5730   91.1176   15.0980 C.ar    1  UNL1        0.0359
     27 C          63.7921   90.8712   13.8412 C.ar    1  UNL1        0.1706
     28 N          62.6057   90.0004   13.5512 N.ar    1  UNL1       -0.1471
     29 N          62.2556   90.1617   12.1016 N.ar    1  UNL1       -0.1960
     30 C          63.2258   91.1322   11.4957 C.ar    1  UNL1        0.3526
     31 O          63.2432   91.5848   10.0657 O.2     1  UNL1       -0.2444
     32 N          64.1753   91.5707   12.5709 N.ar    1  UNL1       -0.2400
     33 C          65.3394   92.5165   12.5573 C.ar    1  UNL1        0.0969
     34 C          66.1203   92.7629   13.8141 C.ar    1  UNL1        0.0715
     35 CL         67.2845   93.7088   13.8005 Cl      1  UNL1       -0.0810
@<TRIPOS>BOND
     1    24    25    1
     2    25    26   ar
     3    26    27   ar
     4    27    28   ar
     5    28    29   ar
     6    29    23    1
     7    23     1    1
     8     1     2   ar
     9     2     3   ar
    10     8     3    1
    11     8     9    1
    12     9    10    1
    13    10    20    1
    14    20    21    1
    15    10    11    1
    16    11    12    1
    17    11    13    1
    18    13    14    1
    19    13    15    1
    20    15    16    1
    21     3     4   ar
    22     4     5   ar
    23     5     6   ar
    24     6     7    1
    25    29    30   ar
    26    30    31    2
    27    30    32   ar
    28    32    33   ar
    29    33    34   ar
    30    34    35    1
    31    34    25   ar
    32    32    27   ar
    33     6     1   ar
    34    15     8    1
    35    21    22    1
    36    12    17    1
    37    14    18    1
    38    16    19    1
@<TRIPOS>MOLECULE
*****
 35 38 0 0 0
SMALL
GASTEIGER

@<TRIPOS>ATOM
      1 C          61.1613   88.1352   10.2432 C.ar    1  UNL1        0.0126
      2 C          61.7951   87.2592   11.2829 C.ar    1  UNL1       -0.0034
      3 C          61.9692   85.7922   11.0229 C.ar    1  UNL1        0.0068
      4 C          61.5096   85.2012    9.7231 C.ar    1  UNL1       -0.0010
      5 C          60.8758   86.0771    8.6833 C.ar    1  UNL1        0.0109
      6 C          60.7017   87.5441    8.9433 C.ar    1  UNL1        0.0555
      7 CL         60.0679   88.4200    7.9036 Cl      1  UNL1       -0.0825
      8 C          62.6030   84.9163   12.0626 C.3     1  UNL1        0.1667
      9 O          62.4447   83.4266   11.9861 O.3     1  UNL1       -0.3466
     10 C          63.0784   82.5507   13.0258 C.3     1  UNL1        0.1739
     11 C          63.8705   83.1644   14.1420 C.3     1  UNL1        0.1692
     12 O          64.5043   82.2884   15.1817 O.3     1  UNL1       -0.3794
     13 C          64.0288   84.6540   14.2186 C.3     1  UNL1        0.1692
     14 O          64.8209   85.2677   15.3348 O.3     1  UNL1       -0.3794
     15 C          63.3950   85.5300   13.1788 C.3     1  UNL1        0.1709
     16 O          63.5534   87.0196   13.2553 O.3     1  UNL1       -0.3792
     17 H          64.9754   82.8400   15.8257 H       1  UNL1        0.2105
     18 H          64.8243   86.2327   15.2364 H       1  UNL1        0.2105
     19 H          64.0894   87.2484   14.0307 H       1  UNL1        0.2106
     20 C          62.9201   81.0610   12.9493 C.3     1  UNL1        0.1692
     21 O          62.8612   80.2474   14.2080 O.3     1  UNL1       -0.3794
     22 H          63.7154   80.2966   14.6651 H       1  UNL1        0.2105
     23 C          60.9872   89.6022   10.5032 C.3     1  UNL1        0.1595
     24 C          67.1456   94.4461   10.9866 C.3     1  UNL1        0.0321
     25 C          66.0845   93.4582   11.3712 C.ar    1  UNL1       -0.0067
     26 C          65.0925   92.9872   10.3494 C.ar    1  UNL1        0.0359
     27 C          64.0313   91.9992   10.7340 C.ar    1  UNL1        0.1706
     28 N          62.9253   91.3578    9.9495 N.ar    1  UNL1       -0.1471
     29 N          62.1726   90.4445   10.8710 N.ar    1  UNL1       -0.1960
     30 C          62.8135   90.5215   12.2251 C.ar    1  UNL1        0.3526
     31 O          62.3814   89.7695   13.4490 O.2     1  UNL1       -0.2444
     32 N          63.9622   91.4823   12.1404 N.ar    1  UNL1       -0.2400
     33 C          64.9542   91.9533   13.1622 C.ar    1  UNL1        0.0969
     34 C          66.0153   92.9413   12.7776 C.ar    1  UNL1        0.0715
     35 CL         67.0073   93.4123   13.7994 Cl      1  UNL1       -0.0810
@<TRIPOS>BOND
     1    24    25    1
     2    25    26   ar
     3    26    27   ar
     4    27    28   ar
     5    28    29   ar
     6    29    23    1
     7    23     1    1
     8     1     2   ar
     9     2     3   ar
    10     8     3    1
    11     8     9    1
    12     9    10    1
    13    10    20    1
    14    20    21    1
    15    10    11    1
    16    11    12    1
    17    11    13    1
    18    13    14    1
    19    13    15    1
    20    15    16    1
    21     3     4   ar
    22     4     5   ar
    23     5     6   ar
    24     6     7    1
    25    29    30   ar
    26    30    31    2
    27    30    32   ar
    28    32    33   ar
    29    33    34   ar
    30    34    35    1
    31    34    25   ar
    32    32    27   ar
    33     6     1   ar
    34    15     8    1
    35    21    22    1
    36    12    17    1
    37    14    18    1
    38    16    19    1
@<TRIPOS>MOLECULE
*****
 35 38 0 0 0
SMALL
GASTEIGER

@<TRIPOS>ATOM
      1 C          63.6125   90.7541   13.5348 C.ar    1  UNL1        0.0126
      2 C          64.1990   91.6579   12.4912 C.ar    1  UNL1       -0.0034
      3 C          65.5891   92.1956   12.6601 C.ar    1  UNL1        0.0068
      4 C          66.3927   91.8295   13.8726 C.ar    1  UNL1       -0.0010
      5 C          65.8062   90.9256   14.9163 C.ar    1  UNL1        0.0109
      6 C          64.4161   90.3879   14.7474 C.ar    1  UNL1        0.0555
      7 CL         63.8296   89.4841   15.7909 Cl      1  UNL1       -0.0825
      8 C          66.1756   93.0994   11.6166 C.3     1  UNL1        0.1667
      9 O          65.4173   94.3112   11.1619 O.3     1  UNL1       -0.3466
     10 C          66.0038   95.2150   10.1183 C.3     1  UNL1        0.1739
     11 C          67.3486   94.9071    9.5294 C.3     1  UNL1        0.1692
     12 O          67.9351   95.8110    8.4858 O.3     1  UNL1       -0.3794
     13 C          68.1068   93.6954    9.9840 C.3     1  UNL1        0.1692
     14 O          69.4516   93.3875    9.3951 O.3     1  UNL1       -0.3794
     15 C          67.5203   92.7915   11.0276 C.3     1  UNL1        0.1709
     16 O          68.2786   91.5798   11.4823 O.3     1  UNL1       -0.3792
     17 H          68.8018   95.4709    8.2136 H       1  UNL1        0.2105
     18 H          69.8019   92.5765    9.7955 H       1  UNL1        0.2105
     19 H          69.1218   91.5284   11.0056 H       1  UNL1        0.2106
     20 C          65.2456   96.4268    9.6636 C.3     1  UNL1        0.1692
     21 O          65.0472   96.6814    8.1988 O.3     1  UNL1       -0.3794
     22 H          65.9048   96.8611    7.7828 H       1  UNL1        0.2105
     23 C          62.2224   90.2164   13.3659 C.3     1  UNL1        0.1595
     24 C          61.8688   85.0762    7.4434 C.3     1  UNL1        0.0321
     25 C          61.4846   86.1634    8.4028 C.ar    1  UNL1       -0.0067
     26 C          62.4395   86.5849    9.4800 C.ar    1  UNL1        0.0359
     27 C          62.0553   87.6721   10.4394 C.ar    1  UNL1        0.1706
     28 N          62.7825   88.2948   11.5942 N.ar    1  UNL1       -0.1471
     29 N          61.8929   89.3453   12.1900 N.ar    1  UNL1       -0.1960
     30 C          60.6159   89.3718   11.4035 C.ar    1  UNL1        0.3526
     31 O          59.4442   90.2741   11.6547 O.2     1  UNL1       -0.2444
     32 N          60.7163   88.3377   10.3216 N.ar    1  UNL1       -0.2400
     33 C          59.7615   87.9162    9.2443 C.ar    1  UNL1        0.0969
     34 C          60.1456   86.8290    8.2849 C.ar    1  UNL1        0.0715
     35 CL         59.1907   86.4075    7.2076 Cl      1  UNL1       -0.0810
@<TRIPOS>BOND
     1    24    25    1
     2    25    26   ar
     3    26    27   ar
     4    27    28   ar
     5    28    29   ar
     6    29    23    1
     7    23     1    1
     8     1     2   ar
     9     2     3   ar
    10     8     3    1
    11     8     9    1
    12     9    10    1
    13    10    20    1
    14    20    21    1
    15    10    11    1
    16    11    12    1
    17    11    13    1
    18    13    14    1
    19    13    15    1
    20    15    16    1
    21     3     4   ar
    22     4     5   ar
    23     5     6   ar
    24     6     7    1
    25    29    30   ar
    26    30    31    2
    27    30    32   ar
    28    32    33   ar
    29    33    34   ar
    30    34    35    1
    31    34    25   ar
    32    32    27   ar
    33     6     1   ar
    34    15     8    1
    35    21    22    1
    36    12    17    1
    37    14    18    1
    38    16    19    1
@<TRIPOS>MOLECULE
*****
 35 38 0 0 0
SMALL
GASTEIGER

@<TRIPOS>ATOM
      1 C          61.8371   88.7385   10.0948 C.ar    1  UNL1        0.0126
      2 C          62.4399   87.7296   11.0267 C.ar    1  UNL1       -0.0034
      3 C          61.9571   86.3095   11.0087 C.ar    1  UNL1        0.0068
      4 C          60.8716   85.8984   10.0587 C.ar    1  UNL1       -0.0010
      5 C          60.2687   86.9074    9.1267 C.ar    1  UNL1        0.0109
      6 C          60.7515   88.3275    9.1447 C.ar    1  UNL1        0.0555
      7 CL         60.1487   89.3364    8.2128 Cl      1  UNL1       -0.0825
      8 C          62.5599   85.3005   11.9406 C.3     1  UNL1        0.1667
      9 O          62.2441   85.3506   13.4062 O.3     1  UNL1       -0.3466
     10 C          62.8469   84.3416   14.3382 C.3     1  UNL1        0.1739
     11 C          63.7654   83.2825   13.8046 C.3     1  UNL1        0.1692
     12 O          64.3682   82.2735   14.7366 O.3     1  UNL1       -0.3794
     13 C          64.0812   83.2324   12.3391 C.3     1  UNL1        0.1692
     14 O          64.9997   82.1733   11.8055 O.3     1  UNL1       -0.3794
     15 C          63.4784   84.2414   11.4071 C.3     1  UNL1        0.1709
     16 O          63.7942   84.1913    9.9416 O.3     1  UNL1       -0.3792
     17 H          64.9326   81.6656   14.2337 H       1  UNL1        0.2105
     18 H          65.0967   82.2826   10.8466 H       1  UNL1        0.2105
     19 H          64.3977   83.4526    9.7659 H       1  UNL1        0.2106
     20 C          62.5312   84.3917   15.8037 C.3     1  UNL1        0.1692
     21 O          61.6720   85.4939   16.3485 O.3     1  UNL1       -0.3794
     22 H          62.1342   86.3414   16.2530 H       1  UNL1        0.2105
     23 C          62.3199   90.1586   10.1128 C.3     1  UNL1        0.1595
     24 C          65.3667   92.0774   17.0884 C.3     1  UNL1        0.0321
     25 C          65.1619   91.9930   15.6049 C.ar    1  UNL1       -0.0067
     26 C          64.0252   91.1873   15.0493 C.ar    1  UNL1        0.0359
     27 C          63.8204   91.1028   13.5658 C.ar    1  UNL1        0.1706
     28 N          62.7957   90.3912   12.7329 N.ar    1  UNL1       -0.1471
     29 N          63.0944   90.6725   11.2902 N.ar    1  UNL1       -0.1960
     30 C          64.3037   91.5580   11.2314 C.ar    1  UNL1        0.3526
     31 O          64.9508   92.0851    9.9850 O.2     1  UNL1       -0.2444
     32 N          64.7524   91.8240   12.6378 N.ar    1  UNL1       -0.2400
     33 C          65.8892   92.6296   13.1933 C.ar    1  UNL1        0.0969
     34 C          66.0939   92.7141   14.6768 C.ar    1  UNL1        0.0715
     35 CL         67.2308   93.5198   15.2324 Cl      1  UNL1       -0.0810
@<TRIPOS>BOND
     1    24    25    1
     2    25    26   ar
     3    26    27   ar
     4    27    28   ar
     5    28    29   ar
     6    29    23    1
     7    23     1    1
     8     1     2   ar
     9     2     3   ar
    10     8     3    1
    11     8     9    1
    12     9    10    1
    13    10    20    1
    14    20    21    1
    15    10    11    1
    16    11    12    1
    17    11    13    1
    18    13    14    1
    19    13    15    1
    20    15    16    1
    21     3     4   ar
    22     4     5   ar
    23     5     6   ar
    24     6     7    1
    25    29    30   ar
    26    30    31    2
    27    30    32   ar
    28    32    33   ar
    29    33    34   ar
    30    34    35    1
    31    34    25   ar
    32    32    27   ar
    33     6     1   ar
    34    15     8    1
    35    21    22    1
    36    12    17    1
    37    14    18    1
    38    16    19    1
@<TRIPOS>MOLECULE
*****
 35 38 0 0 0
SMALL
GASTEIGER

@<TRIPOS>ATOM
      1 C          64.2552   87.4756   15.5886 C.ar    1  UNL1        0.0126
      2 C          64.5474   88.4374   14.4753 C.ar    1  UNL1       -0.0034
      3 C          63.8442   89.7614   14.4240 C.ar    1  UNL1        0.0068
      4 C          62.8487   90.1235   15.4860 C.ar    1  UNL1       -0.0010
      5 C          62.5564   89.1616   16.5994 C.ar    1  UNL1        0.0109
      6 C          63.2597   87.8377   16.6507 C.ar    1  UNL1        0.0555
      7 CL         62.9674   86.8758   17.7639 Cl      1  UNL1       -0.0825
      8 C          64.1364   90.7232   13.3108 C.3     1  UNL1        0.1667
      9 O          65.1338   91.8251   13.5140 O.3     1  UNL1       -0.3466
     10 C          65.4260   92.7869   12.4007 C.3     1  UNL1        0.1739
     11 C          64.7210   92.6469   11.0842 C.3     1  UNL1        0.1692
     12 O          65.0132   93.6088    9.9709 O.3     1  UNL1       -0.3794
     13 C          63.7237   91.5451   10.8809 C.3     1  UNL1        0.1692
     14 O          63.0186   91.4051    9.5644 O.3     1  UNL1       -0.3794
     15 C          63.4314   90.5832   11.9942 C.3     1  UNL1        0.1709
     16 O          62.4341   89.4814   11.7909 O.3     1  UNL1       -0.3792
     17 H          64.4770   93.3790    9.1960 H       1  UNL1        0.2105
     18 H          62.4127   90.6486    9.6009 H       1  UNL1        0.2105
     19 H          62.0738   89.5332   10.8918 H       1  UNL1        0.2106
     20 C          66.4233   93.8887   12.6040 C.3     1  UNL1        0.1692
     21 O          66.0737   95.2966   12.2225 O.3     1  UNL1       -0.3794
     22 H          65.9633   95.3530   11.2605 H       1  UNL1        0.2105
     23 C          64.9585   86.1517   15.6399 C.3     1  UNL1        0.1595
     24 C          62.7809   80.0331   11.2303 C.3     1  UNL1        0.0321
     25 C          62.8126   81.0419   12.3399 C.ar    1  UNL1       -0.0067
     26 C          63.8562   82.1192   12.3445 C.ar    1  UNL1        0.0359
     27 C          63.8880   83.1280   13.4541 C.ar    1  UNL1        0.1706
     28 N          64.7913   84.2947   13.7244 N.ar    1  UNL1       -0.1471
     29 N          64.3376   84.9472   14.9966 N.ar    1  UNL1       -0.1960
     30 C          63.1539   84.1837   15.5125 C.ar    1  UNL1        0.3526
     31 O          62.3834   84.4907   16.7623 O.2     1  UNL1       -0.2444
     32 N          62.8761   83.0594   14.5593 N.ar    1  UNL1       -0.2400
     33 C          61.8325   81.9821   14.5547 C.ar    1  UNL1        0.0969
     34 C          61.8007   80.9733   13.4450 C.ar    1  UNL1        0.0715
     35 CL         60.7570   79.8959   13.4405 Cl      1  UNL1       -0.0810
@<TRIPOS>BOND
     1    24    25    1
     2    25    26   ar
     3    26    27   ar
     4    27    28   ar
     5    28    29   ar
     6    29    23    1
     7    23     1    1
     8     1     2   ar
     9     2     3   ar
    10     8     3    1
    11     8     9    1
    12     9    10    1
    13    10    20    1
    14    20    21    1
    15    10    11    1
    16    11    12    1
    17    11    13    1
    18    13    14    1
    19    13    15    1
    20    15    16    1
    21     3     4   ar
    22     4     5   ar
    23     5     6   ar
    24     6     7    1
    25    29    30   ar
    26    30    31    2
    27    30    32   ar
    28    32    33   ar
    29    33    34   ar
    30    34    35    1
    31    34    25   ar
    32    32    27   ar
    33     6     1   ar
    34    15     8    1
    35    21    22    1
    36    12    17    1
    37    14    18    1
    38    16    19    1
@<TRIPOS>MOLECULE
*****
 35 38 0 0 0
SMALL
GASTEIGER

@<TRIPOS>ATOM
      1 C          63.6155   86.5887   14.7576 C.ar    1  UNL1        0.0126
      2 C          64.2088   87.8442   14.1904 C.ar    1  UNL1       -0.0034
      3 C          64.2380   89.0981   15.0131 C.ar    1  UNL1        0.0068
      4 C          63.6739   89.0966   16.4029 C.ar    1  UNL1       -0.0010
      5 C          63.0806   87.8410   16.9702 C.ar    1  UNL1        0.0109
      6 C          63.0514   86.5871   16.1475 C.ar    1  UNL1        0.0555
      7 CL         62.4581   85.3316   16.7147 Cl      1  UNL1       -0.0825
      8 C          64.8313   90.3536   14.4459 C.3     1  UNL1        0.1667
      9 O          65.8238   91.1428   15.2473 O.3     1  UNL1       -0.3466
     10 C          66.4170   92.3982   14.6801 C.3     1  UNL1        0.1739
     11 C          66.0179   92.8647   13.3115 C.3     1  UNL1        0.1692
     12 O          66.6111   94.1201   12.7443 O.3     1  UNL1       -0.3794
     13 C          65.0254   92.0756   12.5101 C.3     1  UNL1        0.1692
     14 O          64.6262   92.5420   11.1415 O.3     1  UNL1       -0.3794
     15 C          64.4321   90.8200   13.0773 C.3     1  UNL1        0.1709
     16 O          63.4396   90.0310   12.2758 O.3     1  UNL1       -0.3792
     17 H          66.2491   94.2772   11.8582 H       1  UNL1        0.2105
     18 H          63.9820   91.9229   10.7640 H       1  UNL1        0.2105
     19 H          63.2940   90.4670   11.4217 H       1  UNL1        0.2106
     20 C          67.4095   93.1873   15.4816 C.3     1  UNL1        0.1692
     21 O          68.7978   93.4014   14.9553 O.3     1  UNL1       -0.3794
     22 H          69.2624   92.5510   14.9135 H       1  UNL1        0.2105
     23 C          63.5864   85.3348   13.9349 C.3     1  UNL1        0.1595
     24 C          59.8789   86.5181    7.1174 C.3     1  UNL1        0.0321
     25 C          60.8525   85.9917    8.1298 C.ar    1  UNL1       -0.0067
     26 C          60.7743   86.4517    9.5554 C.ar    1  UNL1        0.0359
     27 C          61.7479   85.9253   10.5678 C.ar    1  UNL1        0.1706
     28 N          61.9146   86.1937   12.0342 N.ar    1  UNL1       -0.1471
     29 N          63.0693   85.3731   12.5273 N.ar    1  UNL1       -0.1960
     30 C          63.6164   84.5976   11.3656 C.ar    1  UNL1        0.3526
     31 O          64.7764   83.6476   11.4076 O.2     1  UNL1       -0.2444
     32 N          62.7997   84.9389   10.1546 N.ar    1  UNL1       -0.2400
     33 C          62.8779   84.4789    8.7291 C.ar    1  UNL1        0.0969
     34 C          61.9042   85.0053    7.7167 C.ar    1  UNL1        0.0715
     35 CL         61.9824   84.5453    6.2910 Cl      1  UNL1       -0.0810
@<TRIPOS>BOND
     1    24    25    1
     2    25    26   ar
     3    26    27   ar
     4    27    28   ar
     5    28    29   ar
     6    29    23    1
     7    23     1    1
     8     1     2   ar
     9     2     3   ar
    10     8     3    1
    11     8     9    1
    12     9    10    1
    13    10    20    1
    14    20    21    1
    15    10    11    1
    16    11    12    1
    17    11    13    1
    18    13    14    1
    19    13    15    1
    20    15    16    1
    21     3     4   ar
    22     4     5   ar
    23     5     6   ar
    24     6     7    1
    25    29    30   ar
    26    30    31    2
    27    30    32   ar
    28    32    33   ar
    29    33    34   ar
    30    34    35    1
    31    34    25   ar
    32    32    27   ar
    33     6     1   ar
    34    15     8    1
    35    21    22    1
    36    12    17    1
    37    14    18    1
    38    16    19    1
@<TRIPOS>MOLECULE
*****
 35 38 0 0 0
SMALL
GASTEIGER

@<TRIPOS>ATOM
      1 C          61.7693   88.1541    9.7199 C.ar    1  UNL1        0.0126
      2 C          62.8499   89.0150   10.3038 C.ar    1  UNL1       -0.0034
      3 C          62.5462   90.4260   10.7122 C.ar    1  UNL1        0.0068
      4 C          61.1619   90.9761   10.5366 C.ar    1  UNL1       -0.0010
      5 C          60.0812   90.1153    9.9526 C.ar    1  UNL1        0.0109
      6 C          60.3849   88.7042    9.5443 C.ar    1  UNL1        0.0555
      7 CL         59.3042   87.8434    8.9603 Cl      1  UNL1       -0.0825
      8 C          63.6269   91.2869   11.2962 C.3     1  UNL1        0.1667
      9 O          64.4341   92.1844   10.4057 O.3     1  UNL1       -0.3466
     10 C          65.5147   93.0453   10.9896 C.3     1  UNL1        0.1739
     11 C          65.7883   93.0087   12.4640 C.3     1  UNL1        0.1692
     12 O          66.8689   93.8695   13.0480 O.3     1  UNL1       -0.3794
     13 C          64.9811   92.1112   13.3545 C.3     1  UNL1        0.1692
     14 O          65.2546   92.0745   14.8289 O.3     1  UNL1       -0.3794
     15 C          63.9004   91.2502   12.7705 C.3     1  UNL1        0.1709
     16 O          63.0933   90.3527   13.6610 O.3     1  UNL1       -0.3792
     17 H          66.9140   93.7263   14.0063 H       1  UNL1        0.2105
     18 H          64.6491   91.4476   15.2546 H       1  UNL1        0.2105
     19 H          63.3960   90.4494   14.5775 H       1  UNL1        0.2106
     20 C          66.3219   93.9428   10.0992 C.3     1  UNL1        0.1692
     21 O          67.8197   93.9277   10.1783 O.3     1  UNL1       -0.3794
     22 H          68.1012   94.2624   11.0441 H       1  UNL1        0.2105
     23 C          62.0730   86.7431    9.3115 C.3     1  UNL1        0.1595
     24 C          63.3487   80.3496   13.6841 C.3     1  UNL1        0.0321
     25 C          63.2352   81.7879   13.2739 C.ar    1  UNL1       -0.0067
     26 C          62.8153   82.1386   11.8772 C.ar    1  UNL1        0.0359
     27 C          62.7018   83.5769   11.4670 C.ar    1  UNL1        0.1706
     28 N          62.3141   84.2231   10.1699 N.ar    1  UNL1       -0.1471
     29 N          62.3810   85.7101   10.3548 N.ar    1  UNL1       -0.1960
     30 C          62.8099   85.9830   11.7660 C.ar    1  UNL1        0.3526
     31 O          63.0062   87.3366   12.3818 O.2     1  UNL1       -0.2444
     32 N          63.0082   84.6646   12.4534 N.ar    1  UNL1       -0.2400
     33 C          63.4281   84.3139   13.8500 C.ar    1  UNL1        0.0969
     34 C          63.5416   82.8756   14.2603 C.ar    1  UNL1        0.0715
     35 CL         63.9616   82.5250   15.6570 Cl      1  UNL1       -0.0810
@<TRIPOS>BOND
     1    24    25    1
     2    25    26   ar
     3    26    27   ar
     4    27    28   ar
     5    28    29   ar
     6    29    23    1
     7    23     1    1
     8     1     2   ar
     9     2     3   ar
    10     8     3    1
    11     8     9    1
    12     9    10    1
    13    10    20    1
    14    20    21    1
    15    10    11    1
    16    11    12    1
    17    11    13    1
    18    13    14    1
    19    13    15    1
    20    15    16    1
    21     3     4   ar
    22     4     5   ar
    23     5     6   ar
    24     6     7    1
    25    29    30   ar
    26    30    31    2
    27    30    32   ar
    28    32    33   ar
    29    33    34   ar
    30    34    35    1
    31    34    25   ar
    32    32    27   ar
    33     6     1   ar
    34    15     8    1
    35    21    22    1
    36    12    17    1
    37    14    18    1
    38    16    19    1
@<TRIPOS>MOLECULE
*****
 35 38 0 0 0
SMALL
GASTEIGER

@<TRIPOS>ATOM
      1 C          59.9555   88.9483    8.1602 C.ar    1  UNL1        0.0126
      2 C          60.8361   89.8386    8.9859 C.ar    1  UNL1       -0.0034
      3 C          61.7913   89.2397    9.9753 C.ar    1  UNL1        0.0068
      4 C          61.8660   87.7506   10.1389 C.ar    1  UNL1       -0.0010
      5 C          60.9854   86.8602    9.3132 C.ar    1  UNL1        0.0109
      6 C          60.0301   87.4591    8.3238 C.ar    1  UNL1        0.0555
      7 CL         59.1495   86.5688    7.4981 Cl      1  UNL1       -0.0825
      8 C          62.6719   90.1300   10.8010 C.3     1  UNL1        0.1667
      9 O          63.7007   90.9945   10.1343 O.3     1  UNL1       -0.3466
     10 C          64.5813   91.8848   10.9601 C.3     1  UNL1        0.1739
     11 C          64.4332   91.9107   12.4525 C.3     1  UNL1        0.1692
     12 O          65.3138   92.8010   13.2782 O.3     1  UNL1       -0.3794
     13 C          63.4045   91.0463   13.1192 C.3     1  UNL1        0.1692
     14 O          63.2565   91.0721   14.6117 O.3     1  UNL1       -0.3794
     15 C          62.5239   90.1559   12.2935 C.3     1  UNL1        0.1709
     16 O          61.4952   89.2915   12.9602 O.3     1  UNL1       -0.3792
     17 H          65.0894   92.6977   14.2163 H       1  UNL1        0.2105
     18 H          62.5525   90.4600   14.8774 H       1  UNL1        0.2105
     19 H          61.5313   89.4276   13.9199 H       1  UNL1        0.2106
     20 C          65.6099   92.7493   10.2933 C.3     1  UNL1        0.1692
     21 O          65.5428   94.2409   10.4364 O.3     1  UNL1       -0.3794
     22 H          64.7435   94.5721    9.9978 H       1  UNL1        0.2105
     23 C          59.0002   89.5472    7.1709 C.3     1  UNL1        0.1595
     24 C          63.0520   93.1231    1.4770 C.3     1  UNL1        0.0321
     25 C          61.9139   92.7050    2.3601 C.ar    1  UNL1       -0.0067
     26 C          62.1488   91.7294    3.4750 C.ar    1  UNL1        0.0359
     27 C          61.0106   91.3113    4.3581 C.ar    1  UNL1        0.1706
     28 N          60.9391   90.3738    5.5268 N.ar    1  UNL1       -0.1471
     29 N          59.5217   90.3518    6.0173 N.ar    1  UNL1       -0.1960
     30 C          58.7173   91.2757    5.1516 C.ar    1  UNL1        0.3526
     31 O          57.2503   91.5572    5.2875 O.2     1  UNL1       -0.2444
     32 N          59.6375   91.8687    4.1262 N.ar    1  UNL1       -0.2400
     33 C          59.4026   92.8443    3.0113 C.ar    1  UNL1        0.0969
     34 C          60.5407   93.2624    2.1282 C.ar    1  UNL1        0.0715
     35 CL         60.3057   94.2379    1.0132 Cl      1  UNL1       -0.0810
@<TRIPOS>BOND
     1    24    25    1
     2    25    26   ar
     3    26    27   ar
     4    27    28   ar
     5    28    29   ar
     6    29    23    1
     7    23     1    1
     8     1     2   ar
     9     2     3   ar
    10     8     3    1
    11     8     9    1
    12     9    10    1
    13    10    20    1
    14    20    21    1
    15    10    11    1
    16    11    12    1
    17    11    13    1
    18    13    14    1
    19    13    15    1
    20    15    16    1
    21     3     4   ar
    22     4     5   ar
    23     5     6   ar
    24     6     7    1
    25    29    30   ar
    26    30    31    2
    27    30    32   ar
    28    32    33   ar
    29    33    34   ar
    30    34    35    1
    31    34    25   ar
    32    32    27   ar
    33     6     1   ar
    34    15     8    1
    35    21    22    1
    36    12    17    1
    37    14    18    1
    38    16    19    1
