@<TRIPOS>MOLECULE
*****
 30 34 0 0 0
SMALL
GASTEIGER

@<TRIPOS>ATOM
      1 C          64.0404   89.0639   15.0439 C.2     1  UNL1        0.3845
      2 N          63.6628   89.3524   16.4666 N.2     1  UNL1        0.1566
      3 O          63.1523   88.2493   17.3455 O.2     1  UNL1       -0.2749
      4 C          63.0195   86.8577   16.8017 C.3     1  UNL1        0.3227
      5 C          63.3972   86.5691   15.3790 C.3     1  UNL1        0.2636
      6 N          63.9076   87.6722   14.5001 N.pl3   1  UNL1       -0.2082
      7 H          64.1555   87.4829   13.5664 H       1  UNL1        0.2928
      8 C          63.2643   85.1775   14.8353 C.ar    1  UNL1        0.1692
      9 C          64.1576   84.5419   13.8115 C.ar    1  UNL1        0.0402
     10 C          63.6603   83.1487   13.5633 C.ar    1  UNL1        0.0374
     11 C          64.1456   82.0563   12.6572 C.ar    1  UNL1        0.0031
     12 C          63.4303   80.7384   12.6214 C.ar    1  UNL1        0.0002
     13 C          62.2296   80.5129   13.4918 C.ar    1  UNL1        0.0031
     14 C          61.7443   81.6053   14.3979 C.ar    1  UNL1        0.0375
     15 C          62.4596   82.9232   14.4336 C.ar    1  UNL1        0.1450
     16 O          62.2149   84.1770   15.2198 O.2     1  UNL1       -0.4537
     17 C          66.3360   91.9792   13.6361 C.ar    1  UNL1        0.2418
     18 N          65.8255   90.8761   14.5151 N.ar    1  UNL1       -0.2028
     19 C          64.5509   90.1670   14.1649 C.ar    1  UNL1        0.1702
     20 C          63.7868   90.5610   12.9358 C.ar    1  UNL1        0.0285
     21 C          64.2972   91.6641   12.0568 C.ar    1  UNL1        0.0241
     22 C          65.5718   92.3733   12.4070 C.ar    1  UNL1        0.1189
     23 N          66.0823   93.4763   11.5280 N.ar    1  UNL1       -0.2826
     24 C          66.2034   94.9223   11.9083 C.ar    1  UNL1        0.1826
     25 N          66.7572   95.6668   10.7297 N.ar    1  UNL1       -0.2280
     26 C          66.9783   94.6809    9.6210 C.ar    1  UNL1        0.0786
     27 C          67.5212   94.9939    8.2581 C.3     1  UNL1        0.0538
     28 C          66.5611   93.3272   10.1143 C.ar    1  UNL1        0.0963
     29 C          67.7118   93.4594   15.2690 C.3     1  UNL1        0.2543
     30 O          67.6105   92.6883   13.9863 O.3     1  UNL1       -0.4551
@<TRIPOS>BOND
     1    29    30    1
     2    30    17    1
     3    17    18   ar
     4    18    19   ar
     5    19     1    1
     6     1     2    2
     7     2     3    1
     8     3     4    1
     9     4     5    1
    10     5     8    1
    11     8     9   ar
    12     9    10   ar
    13    10    11   ar
    14    11    12   ar
    15    12    13   ar
    16    13    14   ar
    17    14    15   ar
    18    15    16   ar
    19     5     6    1
    20    19    20   ar
    21    20    21   ar
    22    21    22   ar
    23    22    23    1
    24    23    24   ar
    25    24    25   ar
    26    25    26   ar
    27    26    27    1
    28    26    28   ar
    29    22    17   ar
    30    28    23   ar
    31     6     1    1
    32    16     8   ar
    33    15    10   ar
    34     6     7    1
@<TRIPOS>MOLECULE
*****
 30 34 0 0 0
SMALL
GASTEIGER

@<TRIPOS>ATOM
      1 C          64.0378   88.9748   14.9820 C.2     1  UNL1        0.3845
      2 N          63.6914   89.2311   16.4188 N.2     1  UNL1        0.1566
      3 O          63.1837   88.1120   17.2789 O.2     1  UNL1       -0.2749
      4 C          63.0224   86.7367   16.7023 C.3     1  UNL1        0.3227
      5 C          63.3688   86.4804   15.2655 C.3     1  UNL1        0.2636
      6 N          63.8765   87.5995   14.4054 N.pl3   1  UNL1       -0.2082
      7 H          64.1039   87.4313   13.4624 H       1  UNL1        0.2928
      8 C          63.2075   85.1051   14.6889 C.ar    1  UNL1        0.1692
      9 C          62.3305   84.0175   15.2347 C.ar    1  UNL1        0.0402
     10 C          62.4758   82.8161   14.3484 C.ar    1  UNL1        0.0374
     11 C          61.8527   81.4526   14.3958 C.ar    1  UNL1        0.0031
     12 C          62.1964   80.4341   13.3497 C.ar    1  UNL1        0.0002
     13 C          63.1633   80.7792   12.2560 C.ar    1  UNL1        0.0031
     14 C          63.7864   82.1428   12.2085 C.ar    1  UNL1        0.0375
     15 C          63.4427   83.1613   13.2547 C.ar    1  UNL1        0.1450
     16 O          63.8948   84.5759   13.4652 O.2     1  UNL1       -0.4537
     17 C          64.3852   91.5158   11.9533 C.ar    1  UNL1        0.2418
     18 N          63.8774   90.3967   12.8135 N.ar    1  UNL1       -0.2028
     19 C          64.5456   90.0939   14.1218 C.ar    1  UNL1        0.1702
     20 C          65.7216   90.9101   14.5700 C.ar    1  UNL1        0.0285
     21 C          66.2294   92.0292   13.7099 C.ar    1  UNL1        0.0241
     22 C          65.5612   92.3320   12.4015 C.ar    1  UNL1        0.1189
     23 N          66.0689   93.4511   11.5413 N.ar    1  UNL1       -0.2826
     24 C          66.1386   94.8987   11.9282 C.ar    1  UNL1        0.1826
     25 N          66.7089   95.6613   10.7693 N.ar    1  UNL1       -0.2280
     26 C          66.9917   94.6850    9.6661 C.ar    1  UNL1        0.0786
     27 C          67.5688   95.0165    8.3218 C.3     1  UNL1        0.0538
     28 C          66.5962   93.3190   10.1433 C.ar    1  UNL1        0.0963
     29 C          62.7208   90.8553   10.0709 C.3     1  UNL1        0.2543
     30 O          63.7170   91.8187   10.6450 O.3     1  UNL1       -0.4551
@<TRIPOS>BOND
     1    29    30    1
     2    30    17    1
     3    17    18   ar
     4    18    19   ar
     5    19     1    1
     6     1     2    2
     7     2     3    1
     8     3     4    1
     9     4     5    1
    10     5     8    1
    11     8     9   ar
    12     9    10   ar
    13    10    11   ar
    14    11    12   ar
    15    12    13   ar
    16    13    14   ar
    17    14    15   ar
    18    15    16   ar
    19     5     6    1
    20    19    20   ar
    21    20    21   ar
    22    21    22   ar
    23    22    23    1
    24    23    24   ar
    25    24    25   ar
    26    25    26   ar
    27    26    27    1
    28    26    28   ar
    29    22    17   ar
    30    28    23   ar
    31     6     1    1
    32    16     8   ar
    33    15    10   ar
    34     6     7    1
@<TRIPOS>MOLECULE
*****
 30 34 0 0 0
SMALL
GASTEIGER

@<TRIPOS>ATOM
      1 C          64.5384   89.9004   14.2230 C.2     1  UNL1        0.3845
      2 N          64.4133   90.4189   15.6250 N.2     1  UNL1        0.1566
      3 O          64.7773   91.8408   15.9339 O.2     1  UNL1       -0.2749
      4 C          65.2665   92.7442   14.8410 C.3     1  UNL1        0.3227
      5 C          65.3916   92.2257   13.4391 C.3     1  UNL1        0.2636
      6 N          65.0275   90.8038   13.1301 N.pl3   1  UNL1       -0.2082
      7 H          65.1096   90.4635   12.2099 H       1  UNL1        0.2928
      8 C          65.8807   93.1292   12.3461 C.ar    1  UNL1        0.1692
      9 C          66.4291   92.6920   11.0201 C.ar    1  UNL1        0.0402
     10 C          66.7947   93.9210   10.2417 C.ar    1  UNL1        0.0374
     11 C          67.3795   94.1050    8.8728 C.ar    1  UNL1        0.0031
     12 C          67.6419   95.4858    8.3487 C.ar    1  UNL1        0.0002
     13 C          67.3195   96.6825    9.1937 C.ar    1  UNL1        0.0031
     14 C          66.7347   96.4985   10.5626 C.ar    1  UNL1        0.0375
     15 C          66.4723   95.1178   11.0867 C.ar    1  UNL1        0.1450
     16 O          65.9074   94.6284   12.3872 O.2     1  UNL1       -0.4537
     17 C          63.0471   86.7322   12.3550 C.ar    1  UNL1        0.2418
     18 N          63.4112   88.1542   12.6640 N.ar    1  UNL1       -0.2028
     19 C          64.1743   88.4784   13.9140 C.ar    1  UNL1        0.1702
     20 C          64.5735   87.3805   14.8550 C.ar    1  UNL1        0.0285
     21 C          64.2095   85.9586   14.5460 C.ar    1  UNL1        0.0241
     22 C          63.4463   85.6344   13.2960 C.ar    1  UNL1        0.1189
     23 N          63.0822   84.2125   12.9870 N.ar    1  UNL1       -0.2826
     24 C          63.3281   83.5014   11.6893 C.ar    1  UNL1        0.1826
     25 N          62.8063   82.1014   11.8218 N.ar    1  UNL1       -0.2280
     26 C          62.2379   81.9471   13.2014 C.ar    1  UNL1        0.0786
     27 C          61.6093   80.7061   13.7623 C.3     1  UNL1        0.0538
     28 C          62.4085   83.2519   13.9215 C.ar    1  UNL1        0.0963
     29 C          60.8751   86.8955   10.9388 C.3     1  UNL1        0.2543
     30 O          62.2839   86.4081   11.1050 O.3     1  UNL1       -0.4551
@<TRIPOS>BOND
     1    29    30    1
     2    30    17    1
     3    17    18   ar
     4    18    19   ar
     5    19     1    1
     6     1     2    2
     7     2     3    1
     8     3     4    1
     9     4     5    1
    10     5     8    1
    11     8     9   ar
    12     9    10   ar
    13    10    11   ar
    14    11    12   ar
    15    12    13   ar
    16    13    14   ar
    17    14    15   ar
    18    15    16   ar
    19     5     6    1
    20    19    20   ar
    21    20    21   ar
    22    21    22   ar
    23    22    23    1
    24    23    24   ar
    25    24    25   ar
    26    25    26   ar
    27    26    27    1
    28    26    28   ar
    29    22    17   ar
    30    28    23   ar
    31     6     1    1
    32    16     8   ar
    33    15    10   ar
    34     6     7    1
@<TRIPOS>MOLECULE
*****
 30 34 0 0 0
SMALL
GASTEIGER

@<TRIPOS>ATOM
      1 C          59.6688   91.8368    4.1832 C.2     1  UNL1        0.3845
      2 N          58.1895   92.0596    4.0737 N.2     1  UNL1        0.1566
      3 O          57.2561   91.3825    5.0330 O.2     1  UNL1       -0.2749
      4 C          57.8020   90.4828    6.1018 C.3     1  UNL1        0.3227
      5 C          59.2813   90.2601    6.2114 C.3     1  UNL1        0.2636
      6 N          60.2147   90.9371    5.2521 N.pl3   1  UNL1       -0.2082
      7 H          61.1856   90.7909    5.3240 H       1  UNL1        0.2928
      8 C          59.8271   89.3603    7.2802 C.ar    1  UNL1        0.1692
      9 C          59.7729   87.8613    7.2834 C.ar    1  UNL1        0.0402
     10 C          60.4353   87.3761    8.5387 C.ar    1  UNL1        0.0374
     11 C          60.6762   85.9973    9.0780 C.ar    1  UNL1        0.0031
     12 C          61.3808   85.8177   10.3900 C.ar    1  UNL1        0.0002
     13 C          61.8444   87.0169   11.1627 C.ar    1  UNL1        0.0031
     14 C          61.6035   88.3957   10.6234 C.ar    1  UNL1        0.0375
     15 C          60.8990   88.5753    9.3114 C.ar    1  UNL1        0.1450
     16 O          60.5231   89.8015    8.5336 O.2     1  UNL1       -0.4537
     17 C          61.0828   94.4036    1.5069 C.ar    1  UNL1        0.2418
     18 N          60.1493   93.7266    2.4662 N.ar    1  UNL1       -0.2028
     19 C          60.6023   92.5139    3.2239 C.ar    1  UNL1        0.1702
     20 C          61.9888   91.9782    3.0223 C.ar    1  UNL1        0.0285
     21 C          62.9223   92.6552    2.0631 C.ar    1  UNL1        0.0241
     22 C          62.4694   93.8679    1.3053 C.ar    1  UNL1        0.1189
     23 N          63.4028   94.5449    0.3460 N.ar    1  UNL1       -0.2826
     24 C          63.3850   94.4067   -1.1475 C.ar    1  UNL1        0.1826
     25 N          64.4892   95.2553   -1.7048 N.ar    1  UNL1       -0.2280
     26 C          65.1895   95.9180   -0.5556 C.ar    1  UNL1        0.0786
     27 C          66.3564   96.8552   -0.6562 C.3     1  UNL1        0.0538
     28 C          64.5181   95.4789    0.7118 C.ar    1  UNL1        0.0963
     29 C          59.2786   95.6324    0.0981 C.3     1  UNL1        0.2543
     30 O          60.6298   95.6163    0.7492 O.3     1  UNL1       -0.4551
@<TRIPOS>BOND
     1    29    30    1
     2    30    17    1
     3    17    18   ar
     4    18    19   ar
     5    19     1    1
     6     1     2    2
     7     2     3    1
     8     3     4    1
     9     4     5    1
    10     5     8    1
    11     8     9   ar
    12     9    10   ar
    13    10    11   ar
    14    11    12   ar
    15    12    13   ar
    16    13    14   ar
    17    14    15   ar
    18    15    16   ar
    19     5     6    1
    20    19    20   ar
    21    20    21   ar
    22    21    22   ar
    23    22    23    1
    24    23    24   ar
    25    24    25   ar
    26    25    26   ar
    27    26    27    1
    28    26    28   ar
    29    22    17   ar
    30    28    23   ar
    31     6     1    1
    32    16     8   ar
    33    15    10   ar
    34     6     7    1
@<TRIPOS>MOLECULE
*****
 30 34 0 0 0
SMALL
GASTEIGER

@<TRIPOS>ATOM
      1 C          63.4538   87.1092   15.0992 C.2     1  UNL1        0.3845
      2 N          63.1160   87.3502   16.5406 N.2     1  UNL1        0.1566
      3 O          63.2593   88.7243   17.1248 O.2     1  UNL1       -0.2749
      4 C          63.7404   89.8573   16.2676 C.3     1  UNL1        0.3227
      5 C          64.0782   89.6163   14.8262 C.3     1  UNL1        0.2636
      6 N          63.9349   88.2422   14.2419 N.pl3   1  UNL1       -0.2082
      7 H          64.1566   88.0840   13.2959 H       1  UNL1        0.2928
      8 C          64.5592   90.7493   13.9689 C.ar    1  UNL1        0.1692
      9 C          64.3396   90.8925   12.4920 C.ar    1  UNL1        0.0402
     10 C          64.9890   92.1698   12.0484 C.ar    1  UNL1        0.0374
     11 C          65.0951   92.8278   10.7047 C.ar    1  UNL1        0.0031
     12 C          65.8222   94.1322   10.5637 C.ar    1  UNL1        0.0002
     13 C          66.4432   94.7785   11.7665 C.ar    1  UNL1        0.0031
     14 C          66.3371   94.1204   13.1102 C.ar    1  UNL1        0.0375
     15 C          65.6100   92.8161   13.2512 C.ar    1  UNL1        0.1450
     16 O          65.3444   91.9382   14.4381 O.2     1  UNL1       -0.4537
     17 C          62.8087   84.1948   12.4836 C.ar    1  UNL1        0.2418
     18 N          62.9520   85.5690   13.0679 N.ar    1  UNL1       -0.2028
     19 C          63.3106   85.7350   14.5149 C.ar    1  UNL1        0.1702
     20 C          63.5259   84.5270   15.3776 C.ar    1  UNL1        0.0285
     21 C          63.3827   83.1530   14.7934 C.ar    1  UNL1        0.0241
     22 C          63.0241   82.9868   13.3464 C.ar    1  UNL1        0.1189
     23 N          62.8808   81.6128   12.7621 N.ar    1  UNL1       -0.2826
     24 C          62.5517   80.3617   13.5215 C.ar    1  UNL1        0.1826
     25 N          62.5090   79.2242   12.5447 N.ar    1  UNL1       -0.2280
     26 C          62.8117   79.7723   11.1815 C.ar    1  UNL1        0.0786
     27 C          62.8738   78.9827    9.9076 C.3     1  UNL1        0.0538
     28 C          63.0415   81.2484   11.3160 C.ar    1  UNL1        0.0963
     29 C          63.4796   84.2805    9.9751 C.3     1  UNL1        0.2543
     30 O          62.4501   84.0288   11.0366 O.3     1  UNL1       -0.4551
@<TRIPOS>BOND
     1    29    30    1
     2    30    17    1
     3    17    18   ar
     4    18    19   ar
     5    19     1    1
     6     1     2    2
     7     2     3    1
     8     3     4    1
     9     4     5    1
    10     5     8    1
    11     8     9   ar
    12     9    10   ar
    13    10    11   ar
    14    11    12   ar
    15    12    13   ar
    16    13    14   ar
    17    14    15   ar
    18    15    16   ar
    19     5     6    1
    20    19    20   ar
    21    20    21   ar
    22    21    22   ar
    23    22    23    1
    24    23    24   ar
    25    24    25   ar
    26    25    26   ar
    27    26    27    1
    28    26    28   ar
    29    22    17   ar
    30    28    23   ar
    31     6     1    1
    32    16     8   ar
    33    15    10   ar
    34     6     7    1
@<TRIPOS>MOLECULE
*****
 30 34 0 0 0
SMALL
GASTEIGER

@<TRIPOS>ATOM
      1 C          62.6946   88.2489   11.8860 C.2     1  UNL1        0.3845
      2 N          61.6143   89.0129   11.1794 N.2     1  UNL1        0.1566
      3 O          61.6145   90.5126   11.2086 O.2     1  UNL1       -0.2749
      4 C          62.6949   91.2483   11.9443 C.3     1  UNL1        0.3227
      5 C          63.7752   90.4844   12.6509 C.3     1  UNL1        0.2636
      6 N          63.7751   88.9847   12.6217 N.pl3   1  UNL1       -0.2082
      7 H          64.4841   88.4833   13.0855 H       1  UNL1        0.2928
      8 C          64.8557   91.2201   13.3866 C.ar    1  UNL1        0.1692
      9 C          65.7712   90.6377   14.4223 C.ar    1  UNL1        0.0402
     10 C          66.6917   91.7251   14.8916 C.ar    1  UNL1        0.0374
     11 C          67.8006   91.7350   15.9015 C.ar    1  UNL1        0.0031
     12 C          68.5630   92.9994   16.1658 C.ar    1  UNL1        0.0002
     13 C          68.2164   94.2540   15.4202 C.ar    1  UNL1        0.0031
     14 C          67.1075   94.2441   14.4102 C.ar    1  UNL1        0.0375
     15 C          66.3451   92.9796   14.1459 C.ar    1  UNL1        0.1450
     16 O          65.2104   92.6675   13.2158 O.2     1  UNL1       -0.4537
     17 C          63.1718   84.4761   13.0211 C.ar    1  UNL1        0.2418
     18 N          63.1719   85.9758   13.0502 N.ar    1  UNL1       -0.2028
     19 C          62.6945   86.7492   11.8569 C.ar    1  UNL1        0.1702
     20 C          62.2171   86.0228   10.6344 C.ar    1  UNL1        0.0285
     21 C          62.2169   84.5231   10.6053 C.ar    1  UNL1        0.0241
     22 C          62.6943   83.7497   11.7986 C.ar    1  UNL1        0.1189
     23 N          62.6942   82.2500   11.7695 N.ar    1  UNL1       -0.2826
     24 C          62.4554   81.3454   12.9419 C.ar    1  UNL1        0.1826
     25 N          62.5464   79.9279   12.4598 N.ar    1  UNL1       -0.2280
     26 C          62.8415   79.9565   10.9893 C.ar    1  UNL1        0.0786
     27 C          63.0149   78.7600   10.1014 C.3     1  UNL1        0.0538
     28 C          62.9328   81.3917   10.5627 C.ar    1  UNL1        0.0963
     29 C          62.9652   83.8696   15.5389 C.3     1  UNL1        0.2543
     30 O          63.6491   83.7027   14.2144 O.3     1  UNL1       -0.4551
@<TRIPOS>BOND
     1    29    30    1
     2    30    17    1
     3    17    18   ar
     4    18    19   ar
     5    19     1    1
     6     1     2    2
     7     2     3    1
     8     3     4    1
     9     4     5    1
    10     5     8    1
    11     8     9   ar
    12     9    10   ar
    13    10    11   ar
    14    11    12   ar
    15    12    13   ar
    16    13    14   ar
    17    14    15   ar
    18    15    16   ar
    19     5     6    1
    20    19    20   ar
    21    20    21   ar
    22    21    22   ar
    23    22    23    1
    24    23    24   ar
    25    24    25   ar
    26    25    26   ar
    27    26    27    1
    28    26    28   ar
    29    22    17   ar
    30    28    23   ar
    31     6     1    1
    32    16     8   ar
    33    15    10   ar
    34     6     7    1
