@<TRIPOS>MOLECULE
*****
 33 36 0 0 0
SMALL
GASTEIGER

@<TRIPOS>ATOM
      1 C          63.5891   89.9412   15.5785 C.2     1  UNL1        0.2301
      2 O          63.1293   90.6757   16.8029 O.2     1  UNL1       -0.2745
      3 N          63.6869   88.4445   15.5944 N.am    1  UNL1       -0.2792
      4 C          63.3250   87.6823   16.8345 C.3     1  UNL1        0.0951
      5 C          63.4228   86.1856   16.8504 C.3     1  UNL1        0.0410
      6 C          63.8825   85.4510   15.6260 C.3     1  UNL1        0.0724
      7 C          64.2445   86.2132   14.3858 C.3     1  UNL1        0.0410
      8 C          64.1466   87.7099   14.3699 C.3     1  UNL1        0.0951
      9 N          63.9803   83.9543   15.6419 N.pl3   1  UNL1       -0.3339
     10 H          64.2408   83.4867   16.4682 H       1  UNL1        0.1468
     11 C          63.6814   83.1700   14.3987 C.ar    1  UNL1        0.0447
     12 C          62.4714   82.2853   14.3430 C.ar    1  UNL1        0.0166
     13 C          62.1724   81.5009   13.0999 C.ar    1  UNL1        0.0309
     14 C          63.0834   81.6013   11.9125 C.ar    1  UNL1        0.1402
     15 F          62.7844   80.8169   10.6693 F       1  UNL1       -0.2042
     16 C          64.2934   82.4860   11.9682 C.ar    1  UNL1        0.0309
     17 C          64.5924   83.2704   13.2113 C.ar    1  UNL1        0.0166
     18 C          63.9510   90.7034   14.3383 C.3     1  UNL1        0.1116
     19 C          61.5824   90.1064   10.5589 C.ar    1  UNL1       -0.0062
     20 C          62.9580   90.7012   10.4959 C.ar    1  UNL1       -0.0032
     21 C          63.7476   90.9003   11.7556 C.ar    1  UNL1       -0.0041
     22 C          63.1615   90.5044   13.0785 C.ar    1  UNL1       -0.0131
     23 C          61.7860   89.9095   13.1415 C.ar    1  UNL1       -0.0041
     24 C          60.9964   89.7105   11.8817 C.ar    1  UNL1       -0.0032
     25 C          60.7929   89.9074    9.2992 C.3     1  UNL1        0.0992
     26 C          62.5346   85.0653    8.5772 C.3     1  UNL1        0.0186
     27 C          61.4717   86.1059    8.3836 C.3     1  UNL1        0.0703
     28 C          61.6637   87.4863    8.9381 C.3     1  UNL1        0.0882
     29 N          60.6008   88.5269    8.7446 N.3     1  UNL1       -0.2666
     30 C          59.3459   88.1870    7.9965 C.3     1  UNL1        0.0897
     31 C          59.1539   86.8066    7.4420 C.3     1  UNL1        0.0861
     32 N          60.2168   85.7660    7.6356 N.3     1  UNL1       -0.2963
     33 H          60.5022   85.4601    6.7053 H       1  UNL1        0.1233
@<TRIPOS>BOND
     1    27    26    1
     2    27    28    1
     3    28    29    1
     4    29    25    1
     5    25    19    1
     6    19    20   ar
     7    20    21   ar
     8    21    22   ar
     9    22    18    1
    10    18     1    1
    11     1     2    2
    12     1     3   am
    13     3     4    1
    14     4     5    1
    15     5     6    1
    16     6     9    1
    17     9    11    1
    18    11    12   ar
    19    12    13   ar
    20    13    14   ar
    21    14    15    1
    22    14    16   ar
    23    16    17   ar
    24     6     7    1
    25     7     8    1
    26    22    23   ar
    27    23    24   ar
    28    29    30    1
    29    30    31    1
    30    31    32    1
    31    32    27    1
    32    24    19   ar
    33     8     3    1
    34    17    11   ar
    35     9    10    1
    36    32    33    1
@<TRIPOS>MOLECULE
*****
 33 36 0 0 0
SMALL
GASTEIGER

@<TRIPOS>ATOM
      1 C          60.6746   88.4048    9.4061 C.2     1  UNL1        0.2301
      2 O          59.9775   88.7189    8.1156 O.2     1  UNL1       -0.2745
      3 N          61.4867   87.1501    9.5338 N.am    1  UNL1       -0.2792
      4 C          61.6016   86.2095    8.3711 C.3     1  UNL1        0.0951
      5 C          62.4136   84.9548    8.4988 C.3     1  UNL1        0.0410
      6 C          63.1108   84.6407    9.7893 C.3     1  UNL1        0.0724
      7 C          62.9959   85.5814   10.9521 C.3     1  UNL1        0.0410
      8 C          62.1838   86.8361   10.8243 C.3     1  UNL1        0.0951
      9 N          63.9228   83.3860    9.9170 N.pl3   1  UNL1       -0.3339
     10 H          64.7141   83.2516    9.3469 H       1  UNL1        0.1468
     11 C          63.5292   82.3361   10.9133 C.ar    1  UNL1        0.0447
     12 C          63.5255   82.6566   12.3786 C.ar    1  UNL1        0.0166
     13 C          63.1319   81.6066   13.3750 C.ar    1  UNL1        0.0309
     14 C          62.7420   80.2362   12.9060 C.ar    1  UNL1        0.1402
     15 F          62.3484   79.1863   13.9023 F       1  UNL1       -0.2042
     16 C          62.7457   79.9158   11.4406 C.ar    1  UNL1        0.0309
     17 C          63.1393   80.9657   10.4443 C.ar    1  UNL1        0.0166
     18 C          60.5597   89.3455   10.5689 C.3     1  UNL1        0.1116
     19 C          64.1780   91.6059   12.0002 C.ar    1  UNL1       -0.0062
     20 C          63.7966   91.6416   10.5499 C.ar    1  UNL1       -0.0032
     21 C          62.5905   90.8882   10.0728 C.ar    1  UNL1       -0.0041
     22 C          61.7658   90.0990   11.0460 C.ar    1  UNL1       -0.0131
     23 C          62.1472   90.0633   12.4962 C.ar    1  UNL1       -0.0041
     24 C          63.3532   90.8168   12.9734 C.ar    1  UNL1       -0.0032
     25 C          65.3840   92.3594   12.4774 C.3     1  UNL1        0.0992
     26 C          68.9860   92.3915    8.7324 C.3     1  UNL1        0.0186
     27 C          68.0337   93.1304    9.6252 C.3     1  UNL1        0.0703
     28 C          67.1850   92.3755   10.6048 C.3     1  UNL1        0.0882
     29 N          66.2327   93.1144   11.4976 N.3     1  UNL1       -0.2666
     30 C          66.1290   94.6083   11.4107 C.3     1  UNL1        0.0897
     31 C          66.9777   95.3632   10.4310 C.3     1  UNL1        0.0861
     32 N          67.9300   94.6243    9.5382 N.3     1  UNL1       -0.2963
     33 H          68.8607   94.9956    9.7289 H       1  UNL1        0.1233
@<TRIPOS>BOND
     1    27    26    1
     2    27    28    1
     3    28    29    1
     4    29    25    1
     5    25    19    1
     6    19    20   ar
     7    20    21   ar
     8    21    22   ar
     9    22    18    1
    10    18     1    1
    11     1     2    2
    12     1     3   am
    13     3     4    1
    14     4     5    1
    15     5     6    1
    16     6     9    1
    17     9    11    1
    18    11    12   ar
    19    12    13   ar
    20    13    14   ar
    21    14    15    1
    22    14    16   ar
    23    16    17   ar
    24     6     7    1
    25     7     8    1
    26    22    23   ar
    27    23    24   ar
    28    29    30    1
    29    30    31    1
    30    31    32    1
    31    32    27    1
    32    24    19   ar
    33     8     3    1
    34    17    11   ar
    35     9    10    1
    36    32    33    1
@<TRIPOS>MOLECULE
*****
 33 36 0 0 0
SMALL
GASTEIGER

@<TRIPOS>ATOM
      1 C          60.2124   88.1642    8.3552 C.2     1  UNL1        0.2301
      2 O          58.9177   88.6650    7.7870 O.2     1  UNL1       -0.2745
      3 N          60.8140   88.8343    9.5549 N.am    1  UNL1       -0.2792
      4 C          60.1209   90.0050   10.1863 C.3     1  UNL1        0.0951
      5 C          60.7224   90.6751   11.3860 C.3     1  UNL1        0.0410
      6 C          62.0172   90.1743   11.9542 C.3     1  UNL1        0.0724
      7 C          62.7104   89.0035   11.3227 C.3     1  UNL1        0.0410
      8 C          62.1088   88.3334   10.1230 C.3     1  UNL1        0.0951
      9 N          62.6188   90.8443   13.1538 N.pl3   1  UNL1       -0.3339
     10 H          62.0554   91.0582   13.9324 H       1  UNL1        0.1468
     11 C          64.0786   91.1886   13.1672 C.ar    1  UNL1        0.0447
     12 C          64.9323   90.7907   14.3347 C.ar    1  UNL1        0.0166
     13 C          66.3922   91.1350   14.3482 C.ar    1  UNL1        0.0309
     14 C          66.9985   91.8770   13.1941 C.ar    1  UNL1        0.1402
     15 F          68.4583   92.2213   13.2075 F       1  UNL1       -0.2042
     16 C          66.1448   92.2749   12.0266 C.ar    1  UNL1        0.0309
     17 C          64.6849   91.9306   12.0132 C.ar    1  UNL1        0.0166
     18 C          60.9056   86.9934    7.7238 C.3     1  UNL1        0.1116
     19 C          63.2558   84.1265   10.2747 C.ar    1  UNL1       -0.0062
     20 C          62.0672   84.8397   10.8482 C.ar    1  UNL1       -0.0032
     21 C          61.2838   85.7953    9.9979 C.ar    1  UNL1       -0.0041
     22 C          61.6890   86.0377    8.5741 C.ar    1  UNL1       -0.0131
     23 C          62.8775   85.3246    8.0007 C.ar    1  UNL1       -0.0041
     24 C          63.6609   84.3689    8.8510 C.ar    1  UNL1       -0.0032
     25 C          64.0391   83.1708   11.1251 C.3     1  UNL1        0.0992
     26 C          60.7278   80.6428   14.2306 C.3     1  UNL1        0.0186
     27 C          61.9015   81.5603   14.0554 C.3     1  UNL1        0.0703
     28 C          62.3835   81.9068   12.6779 C.3     1  UNL1        0.0882
     29 N          63.5572   82.8243   12.5027 N.3     1  UNL1       -0.2666
     30 C          64.2489   83.3953   13.7050 C.3     1  UNL1        0.0897
     31 C          63.7669   83.0487   15.0825 C.3     1  UNL1        0.0861
     32 N          62.5932   82.1312   15.2577 N.3     1  UNL1       -0.2963
     33 H          61.8898   82.6501   15.7833 H       1  UNL1        0.1233
@<TRIPOS>BOND
     1    27    26    1
     2    27    28    1
     3    28    29    1
     4    29    25    1
     5    25    19    1
     6    19    20   ar
     7    20    21   ar
     8    21    22   ar
     9    22    18    1
    10    18     1    1
    11     1     2    2
    12     1     3   am
    13     3     4    1
    14     4     5    1
    15     5     6    1
    16     6     9    1
    17     9    11    1
    18    11    12   ar
    19    12    13   ar
    20    13    14   ar
    21    14    15    1
    22    14    16   ar
    23    16    17   ar
    24     6     7    1
    25     7     8    1
    26    22    23   ar
    27    23    24   ar
    28    29    30    1
    29    30    31    1
    30    31    32    1
    31    32    27    1
    32    24    19   ar
    33     8     3    1
    34    17    11   ar
    35     9    10    1
    36    32    33    1
@<TRIPOS>MOLECULE
*****
 33 36 0 0 0
SMALL
GASTEIGER

@<TRIPOS>ATOM
      1 C          62.0794   88.0423   11.7278 C.2     1  UNL1        0.2301
      2 O          62.7922   86.7432   11.9603 O.2     1  UNL1       -0.2745
      3 N          61.2616   88.2372   10.4855 N.am    1  UNL1       -0.2792
      4 C          61.1566   87.1330    9.4758 C.3     1  UNL1        0.0951
      5 C          60.3388   87.3280    8.2335 C.3     1  UNL1        0.0410
      6 C          59.6259   88.6271    8.0010 C.3     1  UNL1        0.0724
      7 C          59.7309   89.7314    9.0108 C.3     1  UNL1        0.0410
      8 C          60.5487   89.5364   10.2531 C.3     1  UNL1        0.0951
      9 N          58.8081   88.8220    6.7588 N.pl3   1  UNL1       -0.3339
     10 H          58.1051   88.1735    6.5255 H       1  UNL1        0.1468
     11 C          59.0615   90.0049    5.8720 C.ar    1  UNL1        0.0447
     12 C          57.9132   90.8432    5.3937 C.ar    1  UNL1        0.0166
     13 C          58.1666   92.0262    4.5068 C.ar    1  UNL1        0.0309
     14 C          59.5681   92.3709    4.0984 C.ar    1  UNL1        0.1402
     15 F          59.8214   93.5538    3.2116 F       1  UNL1       -0.2042
     16 C          60.7164   91.5325    4.5768 C.ar    1  UNL1        0.0309
     17 C          60.4630   90.3496    5.4635 C.ar    1  UNL1        0.0166
     18 C          62.1843   89.1466   12.7376 C.3     1  UNL1        0.1116
     19 C          65.5088   92.1642   12.4344 C.ar    1  UNL1       -0.0062
     20 C          65.3706   91.3220   13.6680 C.ar    1  UNL1       -0.0032
     21 C          64.2624   90.3161   13.7690 C.ar    1  UNL1       -0.0041
     22 C          63.2925   90.1525   12.6365 C.ar    1  UNL1       -0.0131
     23 C          63.4307   90.9947   11.4031 C.ar    1  UNL1       -0.0041
     24 C          64.5388   92.0006   11.3020 C.ar    1  UNL1       -0.0032
     25 C          66.6169   93.1701   12.3334 C.3     1  UNL1        0.0992
     26 C          67.0742   96.8558    8.6993 C.3     1  UNL1        0.0186
     27 C          67.3360   95.4558    9.1697 C.3     1  UNL1        0.0703
     28 C          66.8456   95.0129   10.5163 C.3     1  UNL1        0.0882
     29 N          67.1074   93.6129   10.9867 N.3     1  UNL1       -0.2666
     30 C          67.8596   92.6556   10.1105 C.3     1  UNL1        0.0897
     31 C          68.3501   93.0984    8.7639 C.3     1  UNL1        0.0861
     32 N          68.0883   94.4985    8.2935 N.3     1  UNL1       -0.2963
     33 H          67.5640   94.4231    7.4218 H       1  UNL1        0.1233
@<TRIPOS>BOND
     1    27    26    1
     2    27    28    1
     3    28    29    1
     4    29    25    1
     5    25    19    1
     6    19    20   ar
     7    20    21   ar
     8    21    22   ar
     9    22    18    1
    10    18     1    1
    11     1     2    2
    12     1     3   am
    13     3     4    1
    14     4     5    1
    15     5     6    1
    16     6     9    1
    17     9    11    1
    18    11    12   ar
    19    12    13   ar
    20    13    14   ar
    21    14    15    1
    22    14    16   ar
    23    16    17   ar
    24     6     7    1
    25     7     8    1
    26    22    23   ar
    27    23    24   ar
    28    29    30    1
    29    30    31    1
    30    31    32    1
    31    32    27    1
    32    24    19   ar
    33     8     3    1
    34    17    11   ar
    35     9    10    1
    36    32    33    1
@<TRIPOS>MOLECULE
*****
 33 36 0 0 0
SMALL
GASTEIGER

@<TRIPOS>ATOM
      1 C          63.6341   84.1260   15.2721 C.2     1  UNL1        0.2301
      2 O          62.9766   83.2548   16.3010 O.2     1  UNL1       -0.2745
      3 N          63.6680   85.6138   15.4601 N.am    1  UNL1       -0.2792
      4 C          63.0443   86.2304   16.6770 C.3     1  UNL1        0.0951
      5 C          63.0781   87.7182   16.8650 C.3     1  UNL1        0.0410
      6 C          63.7357   88.5894   15.8361 C.3     1  UNL1        0.0724
      7 C          64.3594   87.9728   14.6192 C.3     1  UNL1        0.0410
      8 C          64.3255   86.4850   14.4312 C.3     1  UNL1        0.0951
      9 N          63.7695   90.0772   16.0241 N.pl3   1  UNL1       -0.3339
     10 H          63.3537   90.4824   16.8192 H       1  UNL1        0.1468
     11 C          64.4368   90.9475   15.0008 C.ar    1  UNL1        0.0447
     12 C          65.5981   91.8117   15.3937 C.ar    1  UNL1        0.0166
     13 C          66.2654   92.6820   14.3704 C.ar    1  UNL1        0.0309
     14 C          65.7714   92.6881   12.9541 C.ar    1  UNL1        0.1402
     15 F          66.4387   93.5584   11.9307 F       1  UNL1       -0.2042
     16 C          64.6101   91.8238   12.5611 C.ar    1  UNL1        0.0309
     17 C          63.9428   90.9535   13.5845 C.ar    1  UNL1        0.0166
     18 C          64.2578   83.5095   14.0552 C.3     1  UNL1        0.1116
     19 C          62.8913   84.7523    9.9517 C.ar    1  UNL1       -0.0062
     20 C          64.0538   83.8165   10.1037 C.ar    1  UNL1       -0.0032
     21 C          64.5093   83.4022   11.4715 C.ar    1  UNL1       -0.0041
     22 C          63.8023   83.9237   12.6874 C.ar    1  UNL1       -0.0131
     23 C          62.6399   84.8595   12.5354 C.ar    1  UNL1       -0.0041
     24 C          62.1844   85.2738   11.1676 C.ar    1  UNL1       -0.0032
     25 C          62.4358   85.1665    8.5839 C.3     1  UNL1        0.0992
     26 C          60.4633   89.8473    9.6793 C.3     1  UNL1        0.0186
     27 C          60.3573   88.5240    8.9809 C.3     1  UNL1        0.0703
     28 C          61.4495   87.5069    9.1316 C.3     1  UNL1        0.0882
     29 N          61.3435   86.1836    8.4333 N.3     1  UNL1       -0.2666
     30 C          60.1455   85.8774    7.5843 C.3     1  UNL1        0.0897
     31 C          59.0534   86.8945    7.4336 C.3     1  UNL1        0.0861
     32 N          59.1593   88.2178    8.1319 N.3     1  UNL1       -0.2963
     33 H          58.3417   88.2979    8.7366 H       1  UNL1        0.1233
@<TRIPOS>BOND
     1    27    26    1
     2    27    28    1
     3    28    29    1
     4    29    25    1
     5    25    19    1
     6    19    20   ar
     7    20    21   ar
     8    21    22   ar
     9    22    18    1
    10    18     1    1
    11     1     2    2
    12     1     3   am
    13     3     4    1
    14     4     5    1
    15     5     6    1
    16     6     9    1
    17     9    11    1
    18    11    12   ar
    19    12    13   ar
    20    13    14   ar
    21    14    15    1
    22    14    16   ar
    23    16    17   ar
    24     6     7    1
    25     7     8    1
    26    22    23   ar
    27    23    24   ar
    28    29    30    1
    29    30    31    1
    30    31    32    1
    31    32    27    1
    32    24    19   ar
    33     8     3    1
    34    17    11   ar
    35     9    10    1
    36    32    33    1
@<TRIPOS>MOLECULE
*****
 33 36 0 0 0
SMALL
GASTEIGER

@<TRIPOS>ATOM
      1 C          63.8571   84.1001   14.9730 C.2     1  UNL1        0.2301
      2 O          64.7228   82.9539   15.4051 O.2     1  UNL1       -0.2745
      3 N          63.5712   84.3166   13.5166 N.am    1  UNL1       -0.2792
      4 C          64.1509   83.3869   12.4921 C.3     1  UNL1        0.0951
      5 C          63.8650   83.6034   11.0356 C.3     1  UNL1        0.0410
      6 C          62.9993   84.7496   10.6036 C.3     1  UNL1        0.0724
      7 C          62.4195   85.6794   11.6280 C.3     1  UNL1        0.0410
      8 C          62.7055   85.4629   13.0845 C.3     1  UNL1        0.0951
      9 N          62.7134   84.9661    9.1471 N.pl3   1  UNL1       -0.3339
     10 H          63.2077   84.4540    8.4670 H       1  UNL1        0.1468
     11 C          61.6743   85.9629    8.7268 C.ar    1  UNL1        0.0447
     12 C          61.7038   87.3561    9.2818 C.ar    1  UNL1        0.0166
     13 C          60.6646   88.3530    8.8615 C.ar    1  UNL1        0.0309
     14 C          59.5960   87.9565    7.8864 C.ar    1  UNL1        0.1402
     15 F          58.5569   88.9533    7.4661 F       1  UNL1       -0.2042
     16 C          59.5666   86.5632    7.3314 C.ar    1  UNL1        0.0309
     17 C          60.6057   85.5664    7.7517 C.ar    1  UNL1        0.0166
     18 C          63.2773   85.0299   15.9975 C.3     1  UNL1        0.1116
     19 C          63.9175   89.4686   15.6257 C.ar    1  UNL1       -0.0062
     20 C          64.5240   88.5364   14.6190 C.ar    1  UNL1       -0.0032
     21 C          64.3106   87.0568   14.7429 C.ar    1  UNL1       -0.0041
     22 C          63.4907   86.5094   15.8736 C.ar    1  UNL1       -0.0131
     23 C          62.8843   87.4416   16.8802 C.ar    1  UNL1       -0.0041
     24 C          63.0977   88.9211   16.7563 C.ar    1  UNL1       -0.0032
     25 C          64.1309   90.9481   15.5018 C.3     1  UNL1        0.0992
     26 C          65.2894   92.7736   10.7768 C.3     1  UNL1        0.0186
     27 C          65.7169   92.3943   12.1636 C.3     1  UNL1        0.0703
     28 C          64.7102   91.8609   13.1393 C.3     1  UNL1        0.0882
     29 N          65.1377   91.4815   14.5261 N.3     1  UNL1       -0.2666
     30 C          66.5720   91.6356   14.9373 C.3     1  UNL1        0.0897
     31 C          67.5787   92.1690   13.9617 C.3     1  UNL1        0.0861
     32 N          67.1512   92.5483   12.5748 N.3     1  UNL1       -0.2963
     33 H          67.7044   91.9827   11.9311 H       1  UNL1        0.1233
@<TRIPOS>BOND
     1    27    26    1
     2    27    28    1
     3    28    29    1
     4    29    25    1
     5    25    19    1
     6    19    20   ar
     7    20    21   ar
     8    21    22   ar
     9    22    18    1
    10    18     1    1
    11     1     2    2
    12     1     3   am
    13     3     4    1
    14     4     5    1
    15     5     6    1
    16     6     9    1
    17     9    11    1
    18    11    12   ar
    19    12    13   ar
    20    13    14   ar
    21    14    15    1
    22    14    16   ar
    23    16    17   ar
    24     6     7    1
    25     7     8    1
    26    22    23   ar
    27    23    24   ar
    28    29    30    1
    29    30    31    1
    30    31    32    1
    31    32    27    1
    32    24    19   ar
    33     8     3    1
    34    17    11   ar
    35     9    10    1
    36    32    33    1
@<TRIPOS>MOLECULE
*****
 33 36 0 0 0
SMALL
GASTEIGER

@<TRIPOS>ATOM
      1 C          63.6990   82.8085   14.3765 C.2     1  UNL1        0.2301
      2 O          64.5430   81.5890   14.6013 O.2     1  UNL1       -0.2745
      3 N          63.5313   83.3597   12.9916 N.am    1  UNL1       -0.2792
      4 C          64.2077   82.6916   11.8314 C.3     1  UNL1        0.0951
      5 C          64.0400   83.2428   10.4465 C.3     1  UNL1        0.0410
      6 C          63.1960   84.4623   10.2218 C.3     1  UNL1        0.0724
      7 C          62.5196   85.1305   11.3820 C.3     1  UNL1        0.0410
      8 C          62.6872   84.5793   12.7669 C.3     1  UNL1        0.0951
      9 N          63.0284   85.0136    8.8368 N.pl3   1  UNL1       -0.3339
     10 H          63.6655   84.7664    8.1282 H       1  UNL1        0.1468
     11 C          61.8901   85.9414    8.5317 C.ar    1  UNL1        0.0447
     12 C          60.8047   85.5123    7.5895 C.ar    1  UNL1        0.0166
     13 C          59.6662   86.4402    7.2843 C.ar    1  UNL1        0.0309
     14 C          59.6133   87.7972    7.9212 C.ar    1  UNL1        0.1402
     15 F          58.4750   88.7251    7.6161 F       1  UNL1       -0.2042
     16 C          60.6988   88.2263    8.8634 C.ar    1  UNL1        0.0309
     17 C          61.8371   87.2984    9.1686 C.ar    1  UNL1        0.0166
     18 C          63.0225   83.4767   15.5367 C.3     1  UNL1        0.1116
     19 C          63.4439   87.9169   16.1339 C.ar    1  UNL1       -0.0062
     20 C          64.3176   87.2073   15.1424 C.ar    1  UNL1       -0.0032
     21 C          64.1772   85.7272   14.9433 C.ar    1  UNL1       -0.0041
     22 C          63.1630   84.9568   15.7358 C.ar    1  UNL1       -0.0131
     23 C          62.2893   85.6664   16.7272 C.ar    1  UNL1       -0.0041
     24 C          62.4297   87.1465   16.9263 C.ar    1  UNL1       -0.0032
     25 C          63.5843   89.3970   16.3330 C.3     1  UNL1        0.0992
     26 C          66.6200   93.0911   14.2986 C.3     1  UNL1        0.0186
     27 C          65.4822   92.1233   14.1615 C.3     1  UNL1        0.0703
     28 C          65.1022   91.2441   15.3157 C.3     1  UNL1        0.0882
     29 N          63.9643   90.2763   15.1786 N.3     1  UNL1       -0.2666
     30 C          63.2066   90.1878   13.8871 C.3     1  UNL1        0.0897
     31 C          63.5866   91.0671   12.7328 C.3     1  UNL1        0.0861
     32 N          64.7244   92.0348   12.8700 N.3     1  UNL1       -0.2963
     33 H          64.3446   92.9637   12.6872 H       1  UNL1        0.1233
@<TRIPOS>BOND
     1    27    26    1
     2    27    28    1
     3    28    29    1
     4    29    25    1
     5    25    19    1
     6    19    20   ar
     7    20    21   ar
     8    21    22   ar
     9    22    18    1
    10    18     1    1
    11     1     2    2
    12     1     3   am
    13     3     4    1
    14     4     5    1
    15     5     6    1
    16     6     9    1
    17     9    11    1
    18    11    12   ar
    19    12    13   ar
    20    13    14   ar
    21    14    15    1
    22    14    16   ar
    23    16    17   ar
    24     6     7    1
    25     7     8    1
    26    22    23   ar
    27    23    24   ar
    28    29    30    1
    29    30    31    1
    30    31    32    1
    31    32    27    1
    32    24    19   ar
    33     8     3    1
    34    17    11   ar
    35     9    10    1
    36    32    33    1
@<TRIPOS>MOLECULE
*****
 33 36 0 0 0
SMALL
GASTEIGER

@<TRIPOS>ATOM
      1 C          60.5971   88.8617    9.4511 C.2     1  UNL1        0.2301
      2 O          59.8412   89.1369    8.1851 O.2     1  UNL1       -0.2745
      3 N          61.3418   87.5700    9.6144 N.am    1  UNL1       -0.2792
      4 C          61.3308   86.5533    8.5115 C.3     1  UNL1        0.0951
      5 C          62.0756   85.2616    8.6748 C.3     1  UNL1        0.0410
      6 C          62.8314   84.9864    9.9408 C.3     1  UNL1        0.0724
      7 C          62.8425   86.0031   11.0438 C.3     1  UNL1        0.0410
      8 C          62.0977   87.2948   10.8805 C.3     1  UNL1        0.0951
      9 N          63.5762   83.6947   10.1040 N.pl3   1  UNL1       -0.3339
     10 H          64.3183   83.4741    9.4959 H       1  UNL1        0.1468
     11 C          63.1903   82.7390   11.1939 C.ar    1  UNL1        0.0447
     12 C          62.8392   83.2579   12.5567 C.ar    1  UNL1        0.0166
     13 C          62.4533   82.3022   13.6467 C.ar    1  UNL1        0.0309
     14 C          62.4186   80.8277   13.3736 C.ar    1  UNL1        0.1402
     15 F          62.0328   79.8720   14.4635 F       1  UNL1       -0.2042
     16 C          62.7698   80.3088   12.0107 C.ar    1  UNL1        0.0309
     17 C          63.1556   81.2645   10.9209 C.ar    1  UNL1        0.0166
     18 C          60.6081   89.8784   10.5541 C.3     1  UNL1        0.1116
     19 C          64.4902   91.7482   11.8516 C.ar    1  UNL1       -0.0062
     20 C          63.6296   91.0353   12.8524 C.ar    1  UNL1       -0.0032
     21 C          62.3356   90.4121   12.4198 C.ar    1  UNL1       -0.0041
     22 C          61.9021   90.5016   10.9866 C.ar    1  UNL1       -0.0131
     23 C          62.7627   91.2144    9.9859 C.ar    1  UNL1       -0.0041
     24 C          64.0567   91.8377   10.4184 C.ar    1  UNL1       -0.0032
     25 C          65.7842   92.3714   12.2841 C.3     1  UNL1        0.0992
     26 C          68.9293   94.0445   16.0669 C.3     1  UNL1        0.0186
     27 C          67.6514   93.3883   15.6352 C.3     1  UNL1        0.0703
     28 C          67.3567   93.2080   14.1755 C.3     1  UNL1        0.0882
     29 N          66.0788   92.5518   13.7438 N.3     1  UNL1       -0.2666
     30 C          65.0956   92.0759   14.7718 C.3     1  UNL1        0.0897
     31 C          65.3902   92.2562   16.2314 C.3     1  UNL1        0.0861
     32 N          66.6682   92.9124   16.6631 N.3     1  UNL1       -0.2963
     33 H          67.1599   92.2403   17.2520 H       1  UNL1        0.1233
@<TRIPOS>BOND
     1    27    26    1
     2    27    28    1
     3    28    29    1
     4    29    25    1
     5    25    19    1
     6    19    20   ar
     7    20    21   ar
     8    21    22   ar
     9    22    18    1
    10    18     1    1
    11     1     2    2
    12     1     3   am
    13     3     4    1
    14     4     5    1
    15     5     6    1
    16     6     9    1
    17     9    11    1
    18    11    12   ar
    19    12    13   ar
    20    13    14   ar
    21    14    15    1
    22    14    16   ar
    23    16    17   ar
    24     6     7    1
    25     7     8    1
    26    22    23   ar
    27    23    24   ar
    28    29    30    1
    29    30    31    1
    30    31    32    1
    31    32    27    1
    32    24    19   ar
    33     8     3    1
    34    17    11   ar
    35     9    10    1
    36    32    33    1
@<TRIPOS>MOLECULE
*****
 33 36 0 0 0
SMALL
GASTEIGER

@<TRIPOS>ATOM
      1 C          60.2055   88.0647    8.4762 C.2     1  UNL1        0.2301
      2 O          59.6998   88.2690    7.0788 O.2     1  UNL1       -0.2745
      3 N          61.1499   86.9383    8.7748 N.am    1  UNL1       -0.2792
      4 C          61.5887   86.0162    7.6762 C.3     1  UNL1        0.0951
      5 C          62.5332   84.8897    7.9748 C.3     1  UNL1        0.0410
      6 C          63.0388   84.6855    9.3721 C.3     1  UNL1        0.0724
      7 C          62.6000   85.6076   10.4709 C.3     1  UNL1        0.0410
      8 C          61.6556   86.7340   10.1722 C.3     1  UNL1        0.0951
      9 N          63.9833   83.5590    9.6708 N.pl3   1  UNL1       -0.3339
     10 H          64.7558   83.3954    9.0829 H       1  UNL1        0.1468
     11 C          63.7507   82.6820   10.8652 C.ar    1  UNL1        0.0447
     12 C          64.2120   83.1249   12.2220 C.ar    1  UNL1        0.0166
     13 C          63.9794   82.2478   13.4165 C.ar    1  UNL1        0.0309
     14 C          63.2856   80.9278   13.2541 C.ar    1  UNL1        0.1402
     15 F          63.0530   80.0508   14.4485 F       1  UNL1       -0.2042
     16 C          62.8243   80.4850   11.8971 C.ar    1  UNL1        0.0309
     17 C          63.0569   81.3620   10.7027 C.ar    1  UNL1        0.0166
     18 C          59.7667   88.9869    9.5749 C.3     1  UNL1        0.1116
     19 C          62.7675   90.5228   12.5558 C.ar    1  UNL1       -0.0062
     20 C          63.0261   90.6731   11.0859 C.ar    1  UNL1       -0.0032
     21 C          62.0258   90.1611   10.0923 C.ar    1  UNL1       -0.0041
     22 C          60.7670   89.4989   10.5685 C.ar    1  UNL1       -0.0131
     23 C          60.5084   89.3486   12.0384 C.ar    1  UNL1       -0.0041
     24 C          61.5087   89.8606   13.0321 C.ar    1  UNL1       -0.0032
     25 C          63.7678   91.0348   13.5495 C.3     1  UNL1        0.0992
     26 C          66.5998   93.5128    9.9663 C.3     1  UNL1        0.0186
     27 C          66.5042   92.8066   11.2862 C.3     1  UNL1        0.0703
     28 C          65.1838   92.2738   11.7579 C.3     1  UNL1        0.0882
     29 N          65.0883   91.5676   13.0778 N.3     1  UNL1       -0.2666
     30 C          66.3132   91.3943   13.9261 C.3     1  UNL1        0.0897
     31 C          67.6336   91.9271   13.4544 C.3     1  UNL1        0.0861
     32 N          67.7291   92.6333   12.1344 N.3     1  UNL1       -0.2963
     33 H          68.4058   92.1168   11.5725 H       1  UNL1        0.1233
@<TRIPOS>BOND
     1    27    26    1
     2    27    28    1
     3    28    29    1
     4    29    25    1
     5    25    19    1
     6    19    20   ar
     7    20    21   ar
     8    21    22   ar
     9    22    18    1
    10    18     1    1
    11     1     2    2
    12     1     3   am
    13     3     4    1
    14     4     5    1
    15     5     6    1
    16     6     9    1
    17     9    11    1
    18    11    12   ar
    19    12    13   ar
    20    13    14   ar
    21    14    15    1
    22    14    16   ar
    23    16    17   ar
    24     6     7    1
    25     7     8    1
    26    22    23   ar
    27    23    24   ar
    28    29    30    1
    29    30    31    1
    30    31    32    1
    31    32    27    1
    32    24    19   ar
    33     8     3    1
    34    17    11   ar
    35     9    10    1
    36    32    33    1
