@<TRIPOS>MOLECULE
*****
 32 36 0 0 0
SMALL
GASTEIGER

@<TRIPOS>ATOM
      1 C          61.6728   85.6644    9.2680 C.ar    1  UNL1        0.1719
      2 N          60.9706   85.0296    8.1044 N.ar    1  UNL1       -0.1283
      3 N          60.1842   86.0952    7.4001 N.ar    1  UNL1       -0.1272
      4 C          60.4003   87.3886    8.1284 C.ar    1  UNL1        0.1840
      5 C          59.8783   88.7744    7.8896 C.ar    1  UNL1        0.0954
      6 C          58.9582   89.0406    6.7351 C.3     1  UNL1        0.0554
      7 N          60.2762   89.8939    8.8051 N.ar    1  UNL1       -0.2451
      8 C          61.1962   89.6277    9.9596 C.ar    1  UNL1        0.0971
      9 C          61.5942   90.7472   10.8752 C.ar    1  UNL1        0.0203
     10 C          62.5142   90.4809   12.0295 C.ar    1  UNL1       -0.0013
     11 C          63.0362   89.0951   12.2684 C.ar    1  UNL1       -0.0046
     12 C          62.6383   87.9756   11.3528 C.ar    1  UNL1        0.0162
     13 C          61.7183   88.2419   10.1984 C.ar    1  UNL1        0.0841
     14 N          61.3203   87.1223    9.2828 N.ar    1  UNL1       -0.2715
     15 C          63.1858   84.3499   12.6933 C.ar    1  UNL1        0.1577
     16 C          64.3642   83.5640   12.1997 C.ar    1  UNL1        0.1356
     17 N          64.6455   83.4782   10.7287 N.ar    1  UNL1       -0.2390
     18 C          63.7483   84.1784    9.7516 C.ar    1  UNL1        0.1021
     19 C          62.5700   84.9643   10.2452 C.ar    1  UNL1        0.0584
     20 C          62.2886   85.0500   11.7161 C.ar    1  UNL1        0.0431
     21 O          62.9045   84.4356   14.1642 O.3     1  UNL1       -0.4739
     22 C          62.6040   83.1901   14.9442 C.3     1  UNL1        0.2055
     23 C          61.7919   82.0931   14.3219 C.3     1  UNL1        0.0473
     24 C          62.6766   80.4628   12.5028 C.3     1  UNL1        0.0001
     25 C          62.4457   80.7962   13.9470 C.3     1  UNL1        0.0038
     26 C          63.9563   88.8289   13.4229 C.3     1  UNL1        0.0993
     27 N          64.2991   89.9329   14.3787 N.3     1  UNL1       -0.2646
     28 C          63.4966   90.1154   15.6327 C.3     1  UNL1        0.1049
     29 C          63.8395   91.2195   16.5886 C.3     1  UNL1        0.1595
     30 O          64.9849   92.1409   16.2904 O.3     1  UNL1       -0.3508
     31 C          65.7875   91.9583   15.0364 C.3     1  UNL1        0.1595
     32 C          65.4446   90.8543   14.0805 C.3     1  UNL1        0.1049
@<TRIPOS>BOND
     1    24    25    1
     2    25    23    1
     3    23    22    1
     4    22    21    1
     5    21    15    1
     6    15    16   ar
     7    16    17   ar
     8    17    18   ar
     9    18    19   ar
    10    19     1    1
    11     1     2   ar
    12     2     3   ar
    13     3     4   ar
    14     4     5   ar
    15     5     6    1
    16     5     7   ar
    17     7     8   ar
    18     8     9   ar
    19     9    10   ar
    20    10    11   ar
    21    11    26    1
    22    26    27    1
    23    27    28    1
    24    28    29    1
    25    29    30    1
    26    30    31    1
    27    31    32    1
    28    11    12   ar
    29    12    13   ar
    30    13    14   ar
    31    19    20   ar
    32    20    15   ar
    33    14     1   ar
    34    14     4   ar
    35    13     8   ar
    36    32    27    1
@<TRIPOS>MOLECULE
*****
 32 36 0 0 0
SMALL
GASTEIGER

@<TRIPOS>ATOM
      1 C          61.5602   85.7653    9.2296 C.ar    1  UNL1        0.1719
      2 N          60.8435   85.1403    8.0695 N.ar    1  UNL1       -0.1283
      3 N          60.0885   86.2212    7.3543 N.ar    1  UNL1       -0.1272
      4 C          60.3386   87.5142    8.0723 C.ar    1  UNL1        0.1840
      5 C          59.8557   88.9118    7.8204 C.ar    1  UNL1        0.0954
      6 C          58.9461   89.1936    6.6613 C.3     1  UNL1        0.0554
      7 N          60.2822   90.0276    8.7276 N.ar    1  UNL1       -0.2451
      8 C          61.1918   89.7459    9.8866 C.ar    1  UNL1        0.0971
      9 C          61.6183   90.8617   10.7938 C.ar    1  UNL1        0.0203
     10 C          62.5278   90.5799   11.9528 C.ar    1  UNL1       -0.0013
     11 C          63.0108   89.1822   12.2046 C.ar    1  UNL1       -0.0046
     12 C          62.5842   88.0664   11.2975 C.ar    1  UNL1        0.0162
     13 C          61.6747   88.3482   10.1385 C.ar    1  UNL1        0.0841
     14 N          61.2481   87.2324    9.2313 N.ar    1  UNL1       -0.2715
     15 C          63.0698   84.4930   12.6723 C.ar    1  UNL1        0.1577
     16 C          64.1853   83.6161   12.1859 C.ar    1  UNL1        0.1356
     17 N          64.4258   83.4555   10.7140 N.ar    1  UNL1       -0.2390
     18 C          63.5507   84.1719    9.7286 C.ar    1  UNL1        0.1021
     19 C          62.4352   85.0488   10.2150 C.ar    1  UNL1        0.0584
     20 C          62.1947   85.2094   11.6869 C.ar    1  UNL1        0.0431
     21 O          62.8294   84.6535   14.1442 O.3     1  UNL1       -0.4739
     22 C          63.9735   84.9713   15.0607 C.3     1  UNL1        0.2055
     23 C          63.8190   86.0271   16.1150 C.3     1  UNL1        0.0473
     24 C          62.6812   86.7563   18.3339 C.3     1  UNL1        0.0001
     25 C          62.6407   85.9939   17.0426 C.3     1  UNL1        0.0038
     26 C          63.9203   88.9005   13.3637 C.3     1  UNL1        0.0993
     27 N          64.2942   90.0034   14.3091 N.3     1  UNL1       -0.2646
     28 C          65.4401   90.9147   13.9827 C.3     1  UNL1        0.1049
     29 C          65.8139   92.0177   14.9281 C.3     1  UNL1        0.1595
     30 O          65.0420   92.2092   16.1999 O.3     1  UNL1       -0.3508
     31 C          63.8962   91.2979   16.5263 C.3     1  UNL1        0.1595
     32 C          63.5223   90.1950   15.5809 C.3     1  UNL1        0.1049
@<TRIPOS>BOND
     1    24    25    1
     2    25    23    1
     3    23    22    1
     4    22    21    1
     5    21    15    1
     6    15    16   ar
     7    16    17   ar
     8    17    18   ar
     9    18    19   ar
    10    19     1    1
    11     1     2   ar
    12     2     3   ar
    13     3     4   ar
    14     4     5   ar
    15     5     6    1
    16     5     7   ar
    17     7     8   ar
    18     8     9   ar
    19     9    10   ar
    20    10    11   ar
    21    11    26    1
    22    26    27    1
    23    27    28    1
    24    28    29    1
    25    29    30    1
    26    30    31    1
    27    31    32    1
    28    11    12   ar
    29    12    13   ar
    30    13    14   ar
    31    19    20   ar
    32    20    15   ar
    33    14     1   ar
    34    14     4   ar
    35    13     8   ar
    36    32    27    1
@<TRIPOS>MOLECULE
*****
 32 36 0 0 0
SMALL
GASTEIGER

@<TRIPOS>ATOM
      1 C          61.8184   85.6321    9.5262 C.ar    1  UNL1        0.1719
      2 N          61.0433   85.1642    8.3302 N.ar    1  UNL1       -0.1283
      3 N          60.2985   86.3403    7.7715 N.ar    1  UNL1       -0.1272
      4 C          60.6132   87.5350    8.6221 C.ar    1  UNL1        0.1840
      5 C          60.1658   88.9648    8.5494 C.ar    1  UNL1        0.0954
      6 C          59.2264   89.4025    7.4648 C.3     1  UNL1        0.0554
      7 N          60.6577   89.9570    9.5610 N.ar    1  UNL1       -0.2451
      8 C          61.5970   89.5194   10.6456 C.ar    1  UNL1        0.0971
      9 C          62.0889   90.5116   11.6573 C.ar    1  UNL1        0.0203
     10 C          63.0282   90.0739   12.7417 C.ar    1  UNL1       -0.0013
     11 C          63.4756   88.6440   12.8145 C.ar    1  UNL1       -0.0046
     12 C          62.9837   87.6518   11.8028 C.ar    1  UNL1        0.0162
     13 C          62.0444   88.0895   10.7184 C.ar    1  UNL1        0.0841
     14 N          61.5525   87.0973    9.7066 N.ar    1  UNL1       -0.2715
     15 C          63.3231   83.8313   12.7266 C.ar    1  UNL1        0.1577
     16 C          64.4745   83.0871   12.1181 C.ar    1  UNL1        0.1356
     17 N          64.7406   83.1912   10.6455 N.ar    1  UNL1       -0.2390
     18 C          63.8552   84.0396    9.7816 C.ar    1  UNL1        0.1021
     19 C          62.7038   84.7838   10.3901 C.ar    1  UNL1        0.0584
     20 C          62.4377   84.6797   11.8627 C.ar    1  UNL1        0.0431
     21 O          63.0571   83.7271   14.1992 O.3     1  UNL1       -0.4739
     22 C          62.1027   82.6926   14.7176 C.3     1  UNL1        0.2055
     23 C          61.6194   81.5978   13.8132 C.3     1  UNL1        0.0473
     24 C          62.6947   79.8591   12.2100 C.3     1  UNL1        0.0001
     25 C          62.4619   80.3754   13.5990 C.3     1  UNL1        0.0038
     26 C          64.4150   88.2064   13.8991 C.3     1  UNL1        0.0993
     27 N          63.8737   87.7559   15.2234 N.3     1  UNL1       -0.2646
     28 C          63.3726   88.7667   16.2119 C.3     1  UNL1        0.1049
     29 C          62.8312   88.3161   17.5363 C.3     1  UNL1        0.1595
     30 O          62.7911   86.8548   17.8722 O.3     1  UNL1       -0.3508
     31 C          63.2922   85.8440   16.8838 C.3     1  UNL1        0.1595
     32 C          63.8335   86.2945   15.5594 C.3     1  UNL1        0.1049
@<TRIPOS>BOND
     1    24    25    1
     2    25    23    1
     3    23    22    1
     4    22    21    1
     5    21    15    1
     6    15    16   ar
     7    16    17   ar
     8    17    18   ar
     9    18    19   ar
    10    19     1    1
    11     1     2   ar
    12     2     3   ar
    13     3     4   ar
    14     4     5   ar
    15     5     6    1
    16     5     7   ar
    17     7     8   ar
    18     8     9   ar
    19     9    10   ar
    20    10    11   ar
    21    11    26    1
    22    26    27    1
    23    27    28    1
    24    28    29    1
    25    29    30    1
    26    30    31    1
    27    31    32    1
    28    11    12   ar
    29    12    13   ar
    30    13    14   ar
    31    19    20   ar
    32    20    15   ar
    33    14     1   ar
    34    14     4   ar
    35    13     8   ar
    36    32    27    1
@<TRIPOS>MOLECULE
*****
 32 36 0 0 0
SMALL
GASTEIGER

@<TRIPOS>ATOM
      1 C          62.3512   89.3611   10.9172 C.ar    1  UNL1        0.1719
      2 N          62.4062   90.8600   10.9273 N.ar    1  UNL1       -0.1283
      3 N          63.1497   91.2883   12.1577 N.ar    1  UNL1       -0.1272
      4 C          63.5542   90.0541   12.9079 C.ar    1  UNL1        0.1840
      5 C          64.3082   89.8609   14.1902 C.ar    1  UNL1        0.0954
      6 C          64.8017   91.0520   14.9569 C.3     1  UNL1        0.0554
      7 N          64.5687   88.4766   14.7058 N.ar    1  UNL1       -0.2451
      8 C          64.0753   87.2854   13.9391 C.ar    1  UNL1        0.0971
      9 C          64.3358   85.9012   14.4548 C.ar    1  UNL1        0.0203
     10 C          63.8423   84.7101   13.6881 C.ar    1  UNL1       -0.0013
     11 C          63.0883   84.9033   12.4058 C.ar    1  UNL1       -0.0046
     12 C          62.8278   86.2876   11.8902 C.ar    1  UNL1        0.0162
     13 C          63.3213   87.4786   12.6569 C.ar    1  UNL1        0.0841
     14 N          63.0608   88.8630   12.1413 N.ar    1  UNL1       -0.2715
     15 C          59.9460   88.2217    7.9733 C.ar    1  UNL1        0.1577
     16 C          60.4003   86.8070    7.7675 C.ar    1  UNL1        0.1356
     17 N          61.5049   86.2437    8.6116 N.ar    1  UNL1       -0.2390
     18 C          62.1552   87.0951    9.6615 C.ar    1  UNL1        0.1021
     19 C          61.7009   88.5097    9.8673 C.ar    1  UNL1        0.0584
     20 C          60.5963   89.0730    9.0232 C.ar    1  UNL1        0.0431
     21 O          58.8414   88.7849    7.1292 O.3     1  UNL1       -0.4739
     22 C          59.1319   89.8820    6.1483 C.3     1  UNL1        0.2055
     23 C          58.0048   90.6683    5.5471 C.3     1  UNL1        0.0473
     24 C          59.6752   92.1855    4.2594 C.3     1  UNL1        0.0001
     25 C          58.2926   91.9245    4.7795 C.3     1  UNL1        0.0038
     26 C          62.5949   83.7121   11.6392 C.3     1  UNL1        0.0993
     27 N          62.4436   82.3877   12.3269 N.3     1  UNL1       -0.2646
     28 C          62.9251   81.1352   11.6565 C.3     1  UNL1        0.1049
     29 C          62.7737   79.8107   12.3443 C.3     1  UNL1        0.1595
     30 O          62.1410   79.7388   13.7023 O.3     1  UNL1       -0.3508
     31 C          61.6595   80.9913   14.3727 C.3     1  UNL1        0.1595
     32 C          61.8108   82.3158   13.6850 C.3     1  UNL1        0.1049
@<TRIPOS>BOND
     1    24    25    1
     2    25    23    1
     3    23    22    1
     4    22    21    1
     5    21    15    1
     6    15    16   ar
     7    16    17   ar
     8    17    18   ar
     9    18    19   ar
    10    19     1    1
    11     1     2   ar
    12     2     3   ar
    13     3     4   ar
    14     4     5   ar
    15     5     6    1
    16     5     7   ar
    17     7     8   ar
    18     8     9   ar
    19     9    10   ar
    20    10    11   ar
    21    11    26    1
    22    26    27    1
    23    27    28    1
    24    28    29    1
    25    29    30    1
    26    30    31    1
    27    31    32    1
    28    11    12   ar
    29    12    13   ar
    30    13    14   ar
    31    19    20   ar
    32    20    15   ar
    33    14     1   ar
    34    14     4   ar
    35    13     8   ar
    36    32    27    1
@<TRIPOS>MOLECULE
*****
 32 36 0 0 0
SMALL
GASTEIGER

@<TRIPOS>ATOM
      1 C          63.8406   85.4450   15.1614 C.ar    1  UNL1        0.1719
      2 N          64.2518   84.4489   16.2048 N.ar    1  UNL1       -0.1283
      3 N          64.2087   83.0837   15.5847 N.ar    1  UNL1       -0.1272
      4 C          63.7709   83.2361   14.1582 C.ar    1  UNL1        0.1840
      5 C          63.5500   82.2346   13.0636 C.ar    1  UNL1        0.0954
      6 C          63.7776   80.7751   13.3253 C.3     1  UNL1        0.0554
      7 N          63.1016   82.6924   11.7074 N.ar    1  UNL1       -0.2451
      8 C          62.8740   84.1518   11.4458 C.ar    1  UNL1        0.0971
      9 C          62.4256   84.6096   10.0896 C.ar    1  UNL1        0.0203
     10 C          62.1980   86.0689    9.8280 C.ar    1  UNL1       -0.0013
     11 C          62.4189   87.0705   10.9225 C.ar    1  UNL1       -0.0046
     12 C          62.8674   86.6127   12.2787 C.ar    1  UNL1        0.0162
     13 C          63.0949   85.1533   12.5403 C.ar    1  UNL1        0.0841
     14 N          63.5434   84.6955   13.8966 N.ar    1  UNL1       -0.2715
     15 C          64.2585   89.3405   14.5288 C.ar    1  UNL1        0.1577
     16 C          63.5497   89.8999   15.7265 C.ar    1  UNL1        0.1356
     17 N          62.9377   88.9743   16.7359 N.ar    1  UNL1       -0.2390
     18 C          63.0347   87.4894   16.5475 C.ar    1  UNL1        0.1021
     19 C          63.7436   86.9300   15.3498 C.ar    1  UNL1        0.0584
     20 C          64.3555   87.8556   14.3404 C.ar    1  UNL1        0.0431
     21 O          64.8704   90.2662   13.5194 O.3     1  UNL1       -0.4739
     22 C          65.5812   91.5066   13.9733 C.3     1  UNL1        0.2055
     23 C          66.9183   91.4016   14.6451 C.3     1  UNL1        0.0473
     24 C          68.7207   92.6318   16.0549 C.3     1  UNL1        0.0001
     25 C          67.2794   92.3502   15.7494 C.3     1  UNL1        0.0038
     26 C          62.1914   88.5299   10.6609 C.3     1  UNL1        0.0993
     27 N          60.9294   89.1887   11.1333 N.3     1  UNL1       -0.2646
     28 C          59.8945   88.3880   11.8668 C.3     1  UNL1        0.1049
     29 C          58.6325   89.0469   12.3393 C.3     1  UNL1        0.1595
     30 O          58.4053   90.5064   12.0783 O.3     1  UNL1       -0.3508
     31 C          59.4401   91.3071   11.3448 C.3     1  UNL1        0.1595
     32 C          60.7021   90.6483   10.8723 C.3     1  UNL1        0.1049
@<TRIPOS>BOND
     1    24    25    1
     2    25    23    1
     3    23    22    1
     4    22    21    1
     5    21    15    1
     6    15    16   ar
     7    16    17   ar
     8    17    18   ar
     9    18    19   ar
    10    19     1    1
    11     1     2   ar
    12     2     3   ar
    13     3     4   ar
    14     4     5   ar
    15     5     6    1
    16     5     7   ar
    17     7     8   ar
    18     8     9   ar
    19     9    10   ar
    20    10    11   ar
    21    11    26    1
    22    26    27    1
    23    27    28    1
    24    28    29    1
    25    29    30    1
    26    30    31    1
    27    31    32    1
    28    11    12   ar
    29    12    13   ar
    30    13    14   ar
    31    19    20   ar
    32    20    15   ar
    33    14     1   ar
    34    14     4   ar
    35    13     8   ar
    36    32    27    1
@<TRIPOS>MOLECULE
*****
 32 36 0 0 0
SMALL
GASTEIGER

@<TRIPOS>ATOM
      1 C          62.1012   86.0504   11.2491 C.ar    1  UNL1        0.1719
      2 N          61.2862   85.2356   10.2890 N.ar    1  UNL1       -0.1283
      3 N          60.6424   86.1757    9.3135 N.ar    1  UNL1       -0.1272
      4 C          61.0594   87.5716    9.6708 C.ar    1  UNL1        0.1840
      5 C          60.7346   88.9032    9.0614 C.ar    1  UNL1        0.0954
      6 C          59.8330   88.9806    7.8651 C.3     1  UNL1        0.0554
      7 N          61.3115   90.1573    9.6482 N.ar    1  UNL1       -0.2451
      8 C          62.2132   90.0798   10.8445 C.ar    1  UNL1        0.0971
      9 C          62.7900   91.3340   11.4313 C.ar    1  UNL1        0.0203
     10 C          63.6916   91.2565   12.6276 C.ar    1  UNL1       -0.0013
     11 C          64.0164   89.9249   13.2370 C.ar    1  UNL1       -0.0046
     12 C          63.4395   88.6708   12.6502 C.ar    1  UNL1        0.0162
     13 C          62.5379   88.7483   11.4539 C.ar    1  UNL1        0.0841
     14 N          61.9610   87.4941   10.8670 N.ar    1  UNL1       -0.2715
     15 C          63.9546   83.5037   13.6634 C.ar    1  UNL1        0.1577
     16 C          64.5388   84.4453   14.6743 C.ar    1  UNL1        0.1356
     17 N          64.3105   85.9221   14.5435 N.ar    1  UNL1       -0.2390
     18 C          63.4979   86.4571   13.4018 C.ar    1  UNL1        0.1021
     19 C          62.9138   85.5154   12.3909 C.ar    1  UNL1        0.0584
     20 C          63.1421   84.0387   12.5216 C.ar    1  UNL1        0.0431
     21 O          64.1830   82.0269   13.7942 O.3     1  UNL1       -0.4739
     22 C          63.4837   81.0750   12.8697 C.3     1  UNL1        0.2055
     23 C          62.2835   80.3119   13.3465 C.3     1  UNL1        0.0473
     24 C          59.8391   80.3319   14.2265 C.3     1  UNL1        0.0001
     25 C          61.1424   81.0377   13.9953 C.3     1  UNL1        0.0038
     26 C          64.9181   89.8474   14.4333 C.3     1  UNL1        0.0993
     27 N          65.8308   90.9921   14.7599 N.3     1  UNL1       -0.2646
     28 C          67.1204   91.1599   14.0124 C.3     1  UNL1        0.1049
     29 C          68.0331   92.3046   14.3391 C.3     1  UNL1        0.1595
     30 O          67.6562   93.2814   15.4132 O.3     1  UNL1       -0.3508
     31 C          66.3666   93.1136   16.1607 C.3     1  UNL1        0.1595
     32 C          65.4539   91.9690   15.8341 C.3     1  UNL1        0.1049
@<TRIPOS>BOND
     1    24    25    1
     2    25    23    1
     3    23    22    1
     4    22    21    1
     5    21    15    1
     6    15    16   ar
     7    16    17   ar
     8    17    18   ar
     9    18    19   ar
    10    19     1    1
    11     1     2   ar
    12     2     3   ar
    13     3     4   ar
    14     4     5   ar
    15     5     6    1
    16     5     7   ar
    17     7     8   ar
    18     8     9   ar
    19     9    10   ar
    20    10    11   ar
    21    11    26    1
    22    26    27    1
    23    27    28    1
    24    28    29    1
    25    29    30    1
    26    30    31    1
    27    31    32    1
    28    11    12   ar
    29    12    13   ar
    30    13    14   ar
    31    19    20   ar
    32    20    15   ar
    33    14     1   ar
    34    14     4   ar
    35    13     8   ar
    36    32    27    1
@<TRIPOS>MOLECULE
*****
 32 36 0 0 0
SMALL
GASTEIGER

@<TRIPOS>ATOM
      1 C          63.3071   90.9426   11.0174 C.ar    1  UNL1        0.1719
      2 N          63.5785   91.6056    9.6995 N.ar    1  UNL1       -0.1283
      3 N          64.5796   92.6990    9.9282 N.ar    1  UNL1       -0.1272
      4 C          64.9268   92.7118   11.3874 C.ar    1  UNL1        0.1840
      5 C          65.8575   93.5717   12.1901 C.ar    1  UNL1        0.0954
      6 C          66.6440   94.6573   11.5169 C.3     1  UNL1        0.0554
      7 N          66.0018   93.3460   13.6660 N.ar    1  UNL1       -0.2451
      8 C          65.2154   92.2605   14.3392 C.ar    1  UNL1        0.0971
      9 C          65.3597   92.0348   15.8151 C.ar    1  UNL1        0.0203
     10 C          64.5732   90.9493   16.4882 C.ar    1  UNL1       -0.0013
     11 C          63.6425   90.0894   15.6854 C.ar    1  UNL1       -0.0046
     12 C          63.4982   90.3151   14.2096 C.ar    1  UNL1        0.0162
     13 C          64.2847   91.4006   13.5364 C.ar    1  UNL1        0.0841
     14 N          64.1404   91.6263   12.0605 N.ar    1  UNL1       -0.2715
     15 C          61.9160   87.2402   11.3439 C.ar    1  UNL1        0.1577
     16 C          60.4880   87.5059   11.7184 C.ar    1  UNL1        0.1356
     17 N          59.9997   88.9172   11.8593 N.ar    1  UNL1       -0.2390
     18 C          60.9394   90.0627   11.6256 C.ar    1  UNL1        0.1021
     19 C          62.3674   89.7971   11.2511 C.ar    1  UNL1        0.0584
     20 C          62.8557   88.3857   11.1102 C.ar    1  UNL1        0.0431
     21 O          62.4042   85.8289   11.2031 O.3     1  UNL1       -0.4739
     22 C          62.4361   84.9235   12.3985 C.3     1  UNL1        0.2055
     23 C          62.9668   83.5266   12.2675 C.3     1  UNL1        0.0473
     24 C          64.2236   82.9482   10.0685 C.3     1  UNL1        0.0001
     25 C          64.2499   83.2777   11.5316 C.3     1  UNL1        0.0038
     26 C          62.8561   89.0039   16.3586 C.3     1  UNL1        0.0993
     27 N          63.2276   87.5663   16.1457 N.3     1  UNL1       -0.2646
     28 C          62.5246   86.4880   16.9158 C.3     1  UNL1        0.1049
     29 C          62.8962   85.0504   16.7028 C.3     1  UNL1        0.1595
     30 O          63.9707   84.6912   15.7198 O.3     1  UNL1       -0.3508
     31 C          64.6737   85.7695   14.9497 C.3     1  UNL1        0.1595
     32 C          64.3022   87.2070   15.1626 C.3     1  UNL1        0.1049
@<TRIPOS>BOND
     1    24    25    1
     2    25    23    1
     3    23    22    1
     4    22    21    1
     5    21    15    1
     6    15    16   ar
     7    16    17   ar
     8    17    18   ar
     9    18    19   ar
    10    19     1    1
    11     1     2   ar
    12     2     3   ar
    13     3     4   ar
    14     4     5   ar
    15     5     6    1
    16     5     7   ar
    17     7     8   ar
    18     8     9   ar
    19     9    10   ar
    20    10    11   ar
    21    11    26    1
    22    26    27    1
    23    27    28    1
    24    28    29    1
    25    29    30    1
    26    30    31    1
    27    31    32    1
    28    11    12   ar
    29    12    13   ar
    30    13    14   ar
    31    19    20   ar
    32    20    15   ar
    33    14     1   ar
    34    14     4   ar
    35    13     8   ar
    36    32    27    1
@<TRIPOS>MOLECULE
*****
 32 36 0 0 0
SMALL
GASTEIGER

@<TRIPOS>ATOM
      1 C          62.5767   84.5203   11.5552 C.ar    1  UNL1        0.1719
      2 N          62.5003   83.0263   11.6657 N.ar    1  UNL1       -0.1283
      3 N          63.0749   82.6297   12.9933 N.ar    1  UNL1       -0.1272
      4 C          63.5064   83.8785   13.7033 C.ar    1  UNL1        0.1840
      5 C          64.1399   84.1027   15.0444 C.ar    1  UNL1        0.0954
      6 C          64.4478   82.9342   15.9332 C.3     1  UNL1        0.0554
      7 N          64.4655   85.4953   15.4967 N.ar    1  UNL1       -0.2451
      8 C          64.1575   86.6638   14.6079 C.ar    1  UNL1        0.0971
      9 C          64.4831   88.0564   15.0602 C.ar    1  UNL1        0.0203
     10 C          64.1752   89.2248   14.1715 C.ar    1  UNL1       -0.0013
     11 C          63.5417   89.0006   12.8304 C.ar    1  UNL1       -0.0046
     12 C          63.2162   87.6080   12.3781 C.ar    1  UNL1        0.0162
     13 C          63.5241   86.4396   13.2669 C.ar    1  UNL1        0.0841
     14 N          63.1985   85.0469   12.8146 N.ar    1  UNL1       -0.2715
     15 C          60.6314   87.2491    9.4293 C.ar    1  UNL1        0.1577
     16 C          61.1848   86.9888    8.0597 C.ar    1  UNL1        0.1356
     17 N          62.2022   85.9057    7.8552 N.ar    1  UNL1       -0.2390
     18 C          62.6662   85.0829    9.0204 C.ar    1  UNL1        0.1021
     19 C          62.1128   85.3431   10.3900 C.ar    1  UNL1        0.0584
     20 C          61.0954   86.4262   10.5945 C.ar    1  UNL1        0.0431
     21 O          59.6140   88.3322    9.6338 O.3     1  UNL1       -0.4739
     22 C          60.0597   89.7440    9.8749 C.3     1  UNL1        0.2055
     23 C          59.7082   90.4322   11.1605 C.3     1  UNL1        0.0473
     24 C          58.3975   88.9401   12.8355 C.3     1  UNL1        0.0001
     25 C          59.6577   89.6510   12.4401 C.3     1  UNL1        0.0038
     26 C          63.2338   90.1691   11.9416 C.3     1  UNL1        0.0993
     27 N          64.1896   91.3224   11.8609 N.3     1  UNL1       -0.2646
     28 C          64.9356   91.7653   13.0845 C.3     1  UNL1        0.1049
     29 C          65.8914   92.9186   13.0037 C.3     1  UNL1        0.1595
     30 O          66.1012   93.6289   11.6994 O.3     1  UNL1       -0.3508
     31 C          65.3551   93.1860   10.4758 C.3     1  UNL1        0.1595
     32 C          64.3994   92.0328   10.5565 C.3     1  UNL1        0.1049
@<TRIPOS>BOND
     1    24    25    1
     2    25    23    1
     3    23    22    1
     4    22    21    1
     5    21    15    1
     6    15    16   ar
     7    16    17   ar
     8    17    18   ar
     9    18    19   ar
    10    19     1    1
    11     1     2   ar
    12     2     3   ar
    13     3     4   ar
    14     4     5   ar
    15     5     6    1
    16     5     7   ar
    17     7     8   ar
    18     8     9   ar
    19     9    10   ar
    20    10    11   ar
    21    11    26    1
    22    26    27    1
    23    27    28    1
    24    28    29    1
    25    29    30    1
    26    30    31    1
    27    31    32    1
    28    11    12   ar
    29    12    13   ar
    30    13    14   ar
    31    19    20   ar
    32    20    15   ar
    33    14     1   ar
    34    14     4   ar
    35    13     8   ar
    36    32    27    1
@<TRIPOS>MOLECULE
*****
 32 36 0 0 0
SMALL
GASTEIGER

@<TRIPOS>ATOM
      1 C          62.1922   86.6161   10.5782 C.ar    1  UNL1        0.1719
      2 N          61.9958   85.6328    9.4626 N.ar    1  UNL1       -0.1283
      3 N          62.6247   84.3344    9.8732 N.ar    1  UNL1       -0.1272
      4 C          63.2098   84.5153   11.2424 C.ar    1  UNL1        0.1840
      5 C          63.9515   83.5781   12.1488 C.ar    1  UNL1        0.0954
      6 C          64.2188   82.1678   11.7131 C.3     1  UNL1        0.0554
      7 N          64.4259   84.0510   13.4909 N.ar    1  UNL1       -0.2451
      8 C          64.1585   85.4613   13.9267 C.ar    1  UNL1        0.0971
      9 C          64.6329   85.9343   15.2688 C.ar    1  UNL1        0.0203
     10 C          64.3655   87.3445   15.7044 C.ar    1  UNL1       -0.0013
     11 C          63.6238   88.2817   14.7980 C.ar    1  UNL1       -0.0046
     12 C          63.1495   87.8087   13.4560 C.ar    1  UNL1        0.0162
     13 C          63.4168   86.3985   13.0203 C.ar    1  UNL1        0.0841
     14 N          62.9425   85.9254   11.6781 N.ar    1  UNL1       -0.2715
     15 C          62.2159   90.5764   10.3225 C.ar    1  UNL1        0.1577
     16 C          60.7787   90.8882   10.6179 C.ar    1  UNL1        0.1356
     17 N          59.8126   89.7759   10.9001 N.ar    1  UNL1       -0.2390
     18 C          60.2838   88.3519   10.8868 C.ar    1  UNL1        0.1021
     19 C          61.7210   88.0401   10.5914 C.ar    1  UNL1        0.0584
     20 C          62.6871   89.1524   10.3092 C.ar    1  UNL1        0.0431
     21 O          63.1819   91.6887   10.0403 O.3     1  UNL1       -0.4739
     22 C          64.4098   91.8485   10.8869 C.3     1  UNL1        0.2055
     23 C          65.4271   92.8956   10.5425 C.3     1  UNL1        0.0473
     24 C          67.8664   92.3142    9.8627 C.3     1  UNL1        0.0001
     25 C          66.8663   92.6939   10.9143 C.3     1  UNL1        0.0038
     26 C          63.3565   89.6919   15.2338 C.3     1  UNL1        0.0993
     27 N          64.4806   90.6829   15.2979 N.3     1  UNL1       -0.2646
     28 C          65.5749   90.6432   14.2727 C.3     1  UNL1        0.1049
     29 C          66.6990   91.6343   14.3368 C.3     1  UNL1        0.1595
     30 O          66.7289   92.6651   15.4261 O.3     1  UNL1       -0.3508
     31 C          65.6346   92.7048   16.4513 C.3     1  UNL1        0.1595
     32 C          64.5105   91.7138   16.3872 C.3     1  UNL1        0.1049
@<TRIPOS>BOND
     1    24    25    1
     2    25    23    1
     3    23    22    1
     4    22    21    1
     5    21    15    1
     6    15    16   ar
     7    16    17   ar
     8    17    18   ar
     9    18    19   ar
    10    19     1    1
    11     1     2   ar
    12     2     3   ar
    13     3     4   ar
    14     4     5   ar
    15     5     6    1
    16     5     7   ar
    17     7     8   ar
    18     8     9   ar
    19     9    10   ar
    20    10    11   ar
    21    11    26    1
    22    26    27    1
    23    27    28    1
    24    28    29    1
    25    29    30    1
    26    30    31    1
    27    31    32    1
    28    11    12   ar
    29    12    13   ar
    30    13    14   ar
    31    19    20   ar
    32    20    15   ar
    33    14     1   ar
    34    14     4   ar
    35    13     8   ar
    36    32    27    1
