@<TRIPOS>MOLECULE
*****
 22 24 0 0 0
SMALL
GASTEIGER

@<TRIPOS>ATOM
      1 C          66.1062   92.3946   11.9362 C.ar    1  UNL1       -0.0158
      2 C          64.7509   91.7536   11.8874 C.ar    1  UNL1        0.0050
      3 S          64.3088   91.4963   13.2975 S.2     1  UNL1       -0.0915
      4 C          65.3909   91.9783   14.2178 C.ar    1  UNL1        0.0288
      5 C          65.5081   91.9833   15.7132 C.ar    1  UNL1        0.0065
      6 C          66.7362   92.5435   16.3672 C.ar    1  UNL1        0.0005
      7 C          67.8471   93.0987   15.5259 C.ar    1  UNL1        0.0000
      8 C          67.7298   93.0937   14.0306 C.ar    1  UNL1        0.0002
      9 C          66.5017   92.5334   13.3765 C.ar    1  UNL1        0.0025
     10 C          67.9689   91.9041   10.1927 C.3     1  UNL1        0.0095
     11 C          66.9227   92.8217   10.7526 C.3     1  UNL1        0.0463
     12 C          66.6930   94.1664   10.1290 C.ar    1  UNL1        0.0007
     13 C          67.4275   94.5483    8.8780 C.ar    1  UNL1       -0.0008
     14 C          67.1979   95.8930    8.2543 C.ar    1  UNL1        0.0204
     15 C          66.2338   96.8558    8.8815 C.ar    1  UNL1        0.0989
     16 N          65.4993   96.4740   10.1323 N.ar    1  UNL1       -0.2426
     17 C          65.7289   95.1293   10.7561 C.ar    1  UNL1        0.0949
     18 C          63.9742   91.4272   10.6464 C.3     1  UNL1        0.0499
     19 C          62.5683   90.9155   10.7544 C.3     1  UNL1        0.0774
     20 N          62.3020   89.4399   10.7123 N.3     1  UNL1       -0.2700
     21 C          62.8162   88.5534   11.8076 C.3     1  UNL1        0.0897
     22 C          61.5214   88.8509    9.5749 C.3     1  UNL1        0.0897
@<TRIPOS>BOND
     1    11    10    1
     2    11    12    1
     3    12    13   ar
     4    13    14   ar
     5    14    15   ar
     6    15    16   ar
     7    16    17   ar
     8    11     1    1
     9     1     2   ar
    10     2    18    1
    11    18    19    1
    12    19    20    1
    13    20    21    1
    14    20    22    1
    15     2     3   ar
    16     3     4   ar
    17     4     5   ar
    18     5     6   ar
    19     6     7   ar
    20     7     8   ar
    21     8     9   ar
    22    17    12   ar
    23     9     1   ar
    24     9     4   ar
@<TRIPOS>MOLECULE
*****
 22 24 0 0 0
SMALL
GASTEIGER

@<TRIPOS>ATOM
      1 C          61.4507   88.2002   10.8467 C.ar    1  UNL1       -0.0158
      2 C          62.2087   86.9598   11.2164 C.ar    1  UNL1        0.0050
      3 S          61.9561   85.9290   10.1564 S.2     1  UNL1       -0.0915
      4 C          61.0419   86.5323    9.1316 C.ar    1  UNL1        0.0288
      5 C          60.4535   85.9849    7.8651 C.ar    1  UNL1        0.0065
      6 C          59.5528   86.8412    7.0252 C.ar    1  UNL1        0.0005
      7 C          59.2404   88.2449    7.4518 C.ar    1  UNL1        0.0000
      8 C          59.8288   88.7923    8.7183 C.ar    1  UNL1        0.0002
      9 C          60.7295   87.9361    9.5582 C.ar    1  UNL1        0.0025
     10 C          60.1647   89.8947   12.3384 C.3     1  UNL1        0.0095
     11 C          61.4193   89.4801   11.6282 C.3     1  UNL1        0.0463
     12 C          62.6423   90.3455   11.6997 C.ar    1  UNL1        0.0007
     13 C          63.1187   91.0732   10.4775 C.ar    1  UNL1       -0.0008
     14 C          64.3418   91.9386   10.5488 C.ar    1  UNL1        0.0204
     15 C          65.0885   92.0764   11.8424 C.ar    1  UNL1        0.0989
     16 N          64.6122   91.3488   13.0646 N.ar    1  UNL1       -0.2426
     17 C          63.3891   90.4834   12.9932 C.ar    1  UNL1        0.0949
     18 C          63.0685   86.7815   12.4325 C.3     1  UNL1        0.0499
     19 C          63.3277   85.4063   12.9727 C.3     1  UNL1        0.0774
     20 N          63.2669   85.1573   14.4506 N.3     1  UNL1       -0.2700
     21 C          62.3124   84.1393   15.0009 C.3     1  UNL1        0.0897
     22 C          64.1604   85.9262   15.3782 C.3     1  UNL1        0.0897
@<TRIPOS>BOND
     1    11    10    1
     2    11    12    1
     3    12    13   ar
     4    13    14   ar
     5    14    15   ar
     6    15    16   ar
     7    16    17   ar
     8    11     1    1
     9     1     2   ar
    10     2    18    1
    11    18    19    1
    12    19    20    1
    13    20    21    1
    14    20    22    1
    15     2     3   ar
    16     3     4   ar
    17     4     5   ar
    18     5     6   ar
    19     6     7   ar
    20     7     8   ar
    21     8     9   ar
    22    17    12   ar
    23     9     1   ar
    24     9     4   ar
@<TRIPOS>MOLECULE
*****
 22 24 0 0 0
SMALL
GASTEIGER

@<TRIPOS>ATOM
      1 C          63.7811   90.7900   13.3545 C.ar    1  UNL1       -0.0158
      2 C          64.7431   91.5921   12.5292 C.ar    1  UNL1        0.0050
      3 S          64.2092   91.6581   11.1289 S.2     1  UNL1       -0.0915
      4 C          62.9173   90.8969   11.0889 C.ar    1  UNL1        0.0288
      5 C          61.9478   90.6230    9.9777 C.ar    1  UNL1        0.0065
      6 C          60.7136   89.8126   10.2420 C.ar    1  UNL1        0.0005
      7 C          60.4490   89.2760   11.6176 C.ar    1  UNL1        0.0000
      8 C          61.4186   89.5499   12.7288 C.ar    1  UNL1        0.0002
      9 C          62.6527   90.3604   12.4645 C.ar    1  UNL1        0.0025
     10 C          64.1697   91.5760   15.8003 C.3     1  UNL1        0.0095
     11 C          63.9226   90.4732   14.8139 C.3     1  UNL1        0.0463
     12 C          63.8170   89.0537   15.2869 C.ar    1  UNL1        0.0007
     13 C          64.4385   87.9480   14.4860 C.ar    1  UNL1       -0.0008
     14 C          64.3329   86.5285   14.9589 C.ar    1  UNL1        0.0204
     15 C          63.6059   86.2145   16.2329 C.ar    1  UNL1        0.0989
     16 N          62.9845   87.3201   17.0338 N.ar    1  UNL1       -0.2426
     17 C          63.0900   88.7397   16.5608 C.ar    1  UNL1        0.0949
     18 C          66.0154   92.2181   13.0181 C.3     1  UNL1        0.0499
     19 C          66.3687   93.6171   12.6083 C.3     1  UNL1        0.0774
     20 N          66.8881   93.8855   11.2269 N.3     1  UNL1       -0.2700
     21 C          66.7098   95.2405   10.6087 C.3     1  UNL1        0.0897
     22 C          67.5856   92.7988   10.4637 C.3     1  UNL1        0.0897
@<TRIPOS>BOND
     1    11    10    1
     2    11    12    1
     3    12    13   ar
     4    13    14   ar
     5    14    15   ar
     6    15    16   ar
     7    16    17   ar
     8    11     1    1
     9     1     2   ar
    10     2    18    1
    11    18    19    1
    12    19    20    1
    13    20    21    1
    14    20    22    1
    15     2     3   ar
    16     3     4   ar
    17     4     5   ar
    18     5     6   ar
    19     6     7   ar
    20     7     8   ar
    21     8     9   ar
    22    17    12   ar
    23     9     1   ar
    24     9     4   ar
@<TRIPOS>MOLECULE
*****
 22 24 0 0 0
SMALL
GASTEIGER

@<TRIPOS>ATOM
      1 C          64.0274   90.6891   14.0200 C.ar    1  UNL1       -0.0158
      2 C          65.1749   91.5796   13.6458 C.ar    1  UNL1        0.0050
      3 S          65.0519   91.9056   12.1868 S.2     1  UNL1       -0.0915
      4 C          63.8284   91.2166   11.6594 C.ar    1  UNL1        0.0288
      5 C          63.2091   91.1766   10.2938 C.ar    1  UNL1        0.0065
      6 C          61.9565   90.3849   10.0613 C.ar    1  UNL1        0.0005
      7 C          61.3233   89.6330   11.1943 C.ar    1  UNL1        0.0000
      8 C          61.9426   89.6729   12.5599 C.ar    1  UNL1        0.0002
      9 C          63.1951   90.4647   12.7924 C.ar    1  UNL1        0.0025
     10 C          63.5078   91.0417   16.5412 C.3     1  UNL1        0.0095
     11 C          63.7591   90.1224   15.3827 C.3     1  UNL1        0.0463
     12 C          63.7420   88.6365   15.5871 C.ar    1  UNL1        0.0007
     13 C          64.4465   87.7375   14.6146 C.ar    1  UNL1       -0.0008
     14 C          64.4295   86.2516   14.8189 C.ar    1  UNL1        0.0204
     15 C          63.7079   85.6646   15.9957 C.ar    1  UNL1        0.0989
     16 N          63.0034   86.5636   16.9681 N.ar    1  UNL1       -0.2426
     17 C          63.0204   88.0495   16.7638 C.ar    1  UNL1        0.0949
     18 C          66.2557   92.0598   14.5685 C.3     1  UNL1        0.0499
     19 C          67.2949   93.0201   14.0707 C.3     1  UNL1        0.0774
     20 N          68.6599   93.0367   14.6925 N.3     1  UNL1       -0.2700
     21 C          69.7837   92.2745   14.0551 C.3     1  UNL1        0.0897
     22 C          68.9011   93.8154   15.9515 C.3     1  UNL1        0.0897
@<TRIPOS>BOND
     1    11    10    1
     2    11    12    1
     3    12    13   ar
     4    13    14   ar
     5    14    15   ar
     6    15    16   ar
     7    16    17   ar
     8    11     1    1
     9     1     2   ar
    10     2    18    1
    11    18    19    1
    12    19    20    1
    13    20    21    1
    14    20    22    1
    15     2     3   ar
    16     3     4   ar
    17     4     5   ar
    18     5     6   ar
    19     6     7   ar
    20     7     8   ar
    21     8     9   ar
    22    17    12   ar
    23     9     1   ar
    24     9     4   ar
@<TRIPOS>MOLECULE
*****
 22 24 0 0 0
SMALL
GASTEIGER

@<TRIPOS>ATOM
      1 C          63.8582   90.6905   13.7113 C.ar    1  UNL1       -0.0158
      2 C          62.8530   90.3984   12.6369 C.ar    1  UNL1        0.0050
      3 S          63.3288   91.0438   11.3692 S.2     1  UNL1       -0.0915
      4 C          64.6281   91.7347   11.6601 C.ar    1  UNL1        0.0288
      5 C          65.5554   92.5345   10.7939 C.ar    1  UNL1        0.0065
      6 C          66.8100   93.1159   11.3752 C.ar    1  UNL1        0.0005
      7 C          67.1372   92.8976   12.8227 C.ar    1  UNL1        0.0000
      8 C          66.2098   92.0978   13.6889 C.ar    1  UNL1        0.0002
      9 C          64.9553   91.5164   13.1076 C.ar    1  UNL1        0.0025
     10 C          63.7279   91.2475   16.2457 C.3     1  UNL1        0.0095
     11 C          63.7801   90.2364   15.1388 C.3     1  UNL1        0.0463
     12 C          63.7543   88.7714   15.4595 C.ar    1  UNL1        0.0007
     13 C          64.4258   87.7912   14.5438 C.ar    1  UNL1       -0.0008
     14 C          64.4000   86.3261   14.8645 C.ar    1  UNL1        0.0204
     15 C          63.7028   85.8412   16.1010 C.ar    1  UNL1        0.0989
     16 N          63.0314   86.8213   17.0166 N.ar    1  UNL1       -0.2426
     17 C          63.0571   88.2864   16.6959 C.ar    1  UNL1        0.0949
     18 C          61.5933   89.6009   12.8014 C.3     1  UNL1        0.0499
     19 C          60.7153   89.3326   11.6152 C.3     1  UNL1        0.0774
     20 N          60.9436   88.1118   10.7740 N.3     1  UNL1       -0.2700
     21 C          62.1442   87.2464   11.0183 C.3     1  UNL1        0.0897
     22 C          59.9713   87.7565    9.6885 C.3     1  UNL1        0.0897
@<TRIPOS>BOND
     1    11    10    1
     2    11    12    1
     3    12    13   ar
     4    13    14   ar
     5    14    15   ar
     6    15    16   ar
     7    16    17   ar
     8    11     1    1
     9     1     2   ar
    10     2    18    1
    11    18    19    1
    12    19    20    1
    13    20    21    1
    14    20    22    1
    15     2     3   ar
    16     3     4   ar
    17     4     5   ar
    18     5     6   ar
    19     6     7   ar
    20     7     8   ar
    21     8     9   ar
    22    17    12   ar
    23     9     1   ar
    24     9     4   ar
@<TRIPOS>MOLECULE
*****
 22 24 0 0 0
SMALL
GASTEIGER

@<TRIPOS>ATOM
      1 C          63.6564   85.2936   13.2005 C.ar    1  UNL1       -0.0158
      2 C          63.3251   83.9295   12.6717 C.ar    1  UNL1        0.0050
      3 S          62.5433   84.1015   11.4032 S.2     1  UNL1       -0.0915
      4 C          62.3914   85.5718   11.1480 C.ar    1  UNL1        0.0288
      5 C          61.7156   86.3349   10.0476 C.ar    1  UNL1        0.0065
      6 C          61.7277   87.8348   10.0581 C.ar    1  UNL1        0.0005
      7 C          62.4156   88.5716   11.1689 C.ar    1  UNL1        0.0000
      8 C          63.0915   87.8085   12.2693 C.ar    1  UNL1        0.0002
      9 C          63.0794   86.3086   12.2588 C.ar    1  UNL1        0.0025
     10 C          65.8934   85.2724   14.5218 C.3     1  UNL1        0.0095
     11 C          64.4292   85.5905   14.4514 C.3     1  UNL1        0.0463
     12 C          63.7378   86.2056   15.6318 C.ar    1  UNL1        0.0007
     13 C          63.8232   87.6851   15.8640 C.ar    1  UNL1       -0.0008
     14 C          63.1319   88.3003   17.0445 C.ar    1  UNL1        0.0204
     15 C          62.3550   87.4359   17.9929 C.ar    1  UNL1        0.0989
     16 N          62.2696   85.9565   17.7607 N.ar    1  UNL1       -0.2426
     17 C          62.9609   85.3413   16.5803 C.ar    1  UNL1        0.0949
     18 C          63.7084   82.6229   13.3010 C.3     1  UNL1        0.0499
     19 C          62.7525   81.9255   14.2229 C.3     1  UNL1        0.0774
     20 N          61.9036   80.7997   13.7113 N.3     1  UNL1       -0.2700
     21 C          62.4831   79.7965   12.7584 C.3     1  UNL1        0.0897
     22 C          60.4753   80.6769   14.1525 C.3     1  UNL1        0.0897
@<TRIPOS>BOND
     1    11    10    1
     2    11    12    1
     3    12    13   ar
     4    13    14   ar
     5    14    15   ar
     6    15    16   ar
     7    16    17   ar
     8    11     1    1
     9     1     2   ar
    10     2    18    1
    11    18    19    1
    12    19    20    1
    13    20    21    1
    14    20    22    1
    15     2     3   ar
    16     3     4   ar
    17     4     5   ar
    18     5     6   ar
    19     6     7   ar
    20     7     8   ar
    21     8     9   ar
    22    17    12   ar
    23     9     1   ar
    24     9     4   ar
@<TRIPOS>MOLECULE
*****
 22 24 0 0 0
SMALL
GASTEIGER

@<TRIPOS>ATOM
      1 C          63.0036   85.2611   11.9857 C.ar    1  UNL1       -0.0158
      2 C          63.5381   85.9806   13.1884 C.ar    1  UNL1        0.0050
      3 S          63.8575   84.9567   14.2370 S.2     1  UNL1       -0.0915
      4 C          63.5204   83.6044   13.6823 C.ar    1  UNL1        0.0288
      5 C          63.6259   82.2261   14.2645 C.ar    1  UNL1        0.0065
      6 C          63.2035   81.0358   13.4553 C.ar    1  UNL1        0.0005
      7 C          62.6757   81.2240   12.0638 C.ar    1  UNL1        0.0000
      8 C          62.5703   82.6023   11.4817 C.ar    1  UNL1        0.0002
      9 C          62.9927   83.7926   12.2909 C.ar    1  UNL1        0.0025
     10 C          62.8526   85.2309    9.3921 C.3     1  UNL1        0.0095
     11 C          62.5582   85.8983   10.7028 C.3     1  UNL1        0.0463
     12 C          61.8184   87.2028   10.7306 C.ar    1  UNL1        0.0007
     13 C          62.3831   88.4005   10.0257 C.ar    1  UNL1       -0.0008
     14 C          61.6433   89.7050   10.0534 C.ar    1  UNL1        0.0204
     15 C          60.3388   89.8120   10.7861 C.ar    1  UNL1        0.0989
     16 N          59.7741   88.6145   11.4910 N.ar    1  UNL1       -0.2426
     17 C          60.5139   87.3099   11.4633 C.ar    1  UNL1        0.0949
     18 C          63.7211   87.4637   13.3195 C.3     1  UNL1        0.0499
     19 C          64.2725   88.0420   14.5889 C.3     1  UNL1        0.0774
     20 N          63.6565   89.2749   15.1810 N.3     1  UNL1       -0.2700
     21 C          63.1199   89.2466   16.5815 C.3     1  UNL1        0.0897
     22 C          63.5772   90.5359   14.3728 C.3     1  UNL1        0.0897
@<TRIPOS>BOND
     1    11    10    1
     2    11    12    1
     3    12    13   ar
     4    13    14   ar
     5    14    15   ar
     6    15    16   ar
     7    16    17   ar
     8    11     1    1
     9     1     2   ar
    10     2    18    1
    11    18    19    1
    12    19    20    1
    13    20    21    1
    14    20    22    1
    15     2     3   ar
    16     3     4   ar
    17     4     5   ar
    18     5     6   ar
    19     6     7   ar
    20     7     8   ar
    21     8     9   ar
    22    17    12   ar
    23     9     1   ar
    24     9     4   ar
@<TRIPOS>MOLECULE
*****
 22 24 0 0 0
SMALL
GASTEIGER

@<TRIPOS>ATOM
      1 C          64.7541   91.7319   12.5844 C.ar    1  UNL1       -0.0158
      2 C          63.8790   90.7268   13.2729 C.ar    1  UNL1        0.0050
      3 S          64.2655   90.6909   14.7218 S.2     1  UNL1       -0.0915
      4 C          65.3795   91.6739   14.9288 C.ar    1  UNL1        0.0288
      5 C          66.1579   92.0663   16.1495 C.ar    1  UNL1        0.0065
      6 C          67.2383   93.1019   16.0492 C.ar    1  UNL1        0.0005
      7 C          67.5402   93.7453   14.7282 C.ar    1  UNL1        0.0000
      8 C          66.7618   93.3529   13.5075 C.ar    1  UNL1        0.0002
      9 C          65.6815   92.3172   13.6078 C.ar    1  UNL1        0.0025
     10 C          63.5880   91.5882   10.2671 C.3     1  UNL1        0.0095
     11 C          64.7096   92.0889   11.1282 C.3     1  UNL1        0.0463
     12 C          65.7866   92.9467   10.5331 C.ar    1  UNL1        0.0007
     13 C          67.0618   92.3218   10.0498 C.ar    1  UNL1       -0.0008
     14 C          68.1388   93.1795    9.4546 C.ar    1  UNL1        0.0204
     15 C          67.9407   94.6622    9.3427 C.ar    1  UNL1        0.0989
     16 N          66.6657   95.2870    9.8260 N.ar    1  UNL1       -0.2426
     17 C          65.5886   94.4293   10.4212 C.ar    1  UNL1        0.0949
     18 C          62.8058   89.9023   12.6260 C.3     1  UNL1        0.0499
     19 C          63.0783   88.4749   12.2541 C.3     1  UNL1        0.0774
     20 N          62.0598   87.6949   11.4767 N.3     1  UNL1       -0.2700
     21 C          62.2783   86.2354   11.2078 C.3     1  UNL1        0.0897
     22 C          60.8230   88.3742   10.9683 C.3     1  UNL1        0.0897
@<TRIPOS>BOND
     1    11    10    1
     2    11    12    1
     3    12    13   ar
     4    13    14   ar
     5    14    15   ar
     6    15    16   ar
     7    16    17   ar
     8    11     1    1
     9     1     2   ar
    10     2    18    1
    11    18    19    1
    12    19    20    1
    13    20    21    1
    14    20    22    1
    15     2     3   ar
    16     3     4   ar
    17     4     5   ar
    18     5     6   ar
    19     6     7   ar
    20     7     8   ar
    21     8     9   ar
    22    17    12   ar
    23     9     1   ar
    24     9     4   ar
@<TRIPOS>MOLECULE
*****
 22 24 0 0 0
SMALL
GASTEIGER

@<TRIPOS>ATOM
      1 C          63.3989   87.3110   13.0626 C.ar    1  UNL1       -0.0158
      2 C          62.9352   85.9746   12.5635 C.ar    1  UNL1        0.0050
      3 S          62.2060   86.1903   11.2706 S.2     1  UNL1       -0.0915
      4 C          62.2190   87.6600   10.9706 C.ar    1  UNL1        0.0288
      5 C          61.6547   88.4570    9.8320 C.ar    1  UNL1        0.0065
      6 C          61.8278   89.9466    9.8010 C.ar    1  UNL1        0.0005
      7 C          62.5651   90.6392   10.9086 C.ar    1  UNL1        0.0000
      8 C          63.1294   89.8422   12.0471 C.ar    1  UNL1        0.0002
      9 C          62.9563   88.3526   12.0781 C.ar    1  UNL1        0.0025
     10 C          64.9394   86.4462   14.9677 C.3     1  UNL1        0.0095
     11 C          64.1699   87.5618   14.3246 C.3     1  UNL1        0.0463
     12 C          64.1716   88.9280   14.9436 C.ar    1  UNL1        0.0007
     13 C          65.1051   89.9835   14.4290 C.ar    1  UNL1       -0.0008
     14 C          65.1068   91.3498   15.0480 C.ar    1  UNL1        0.0204
     15 C          64.1749   91.6607   16.1816 C.ar    1  UNL1        0.0989
     16 N          63.2414   90.6053   16.6962 N.ar    1  UNL1       -0.2426
     17 C          63.2398   89.2390   16.0772 C.ar    1  UNL1        0.0949
     18 C          63.1611   84.6544   13.2388 C.3     1  UNL1        0.0499
     19 C          64.1641   83.6886   12.6810 C.3     1  UNL1        0.0774
     20 N          63.7391   82.6678   11.6675 N.3     1  UNL1       -0.2700
     21 C          62.8760   81.5132   12.0823 C.3     1  UNL1        0.0897
     22 C          64.1773   82.8015   10.2392 C.3     1  UNL1        0.0897
@<TRIPOS>BOND
     1    11    10    1
     2    11    12    1
     3    12    13   ar
     4    13    14   ar
     5    14    15   ar
     6    15    16   ar
     7    16    17   ar
     8    11     1    1
     9     1     2   ar
    10     2    18    1
    11    18    19    1
    12    19    20    1
    13    20    21    1
    14    20    22    1
    15     2     3   ar
    16     3     4   ar
    17     4     5   ar
    18     5     6   ar
    19     6     7   ar
    20     7     8   ar
    21     8     9   ar
    22    17    12   ar
    23     9     1   ar
    24     9     4   ar
