@<TRIPOS>MOLECULE
*****
 35 39 0 0 0
SMALL
GASTEIGER

@<TRIPOS>ATOM
      1 C          62.5003   88.2967   11.6118 C.3     1  UNL1        0.1532
      2 C          61.9366   84.3589    6.0060 C.3     1  UNL1        0.0897
      3 N          61.7748   85.2179    7.2249 N.3     1  UNL1       -0.2686
      4 C          62.9854   85.7198    7.9548 C.3     1  UNL1        0.0939
      5 C          62.8237   86.5788    9.1738 C.3     1  UNL1        0.1108
      6 N          61.4515   86.9359    9.6630 N.am    1  UNL1       -0.2753
      7 C          61.2897   87.7949   10.8820 C.2     1  UNL1        0.2439
      8 O          59.9174   88.1520   11.3712 O.2     1  UNL1       -0.2731
      9 C          60.2409   86.4341    8.9332 C.3     1  UNL1        0.1108
     10 C          60.4026   85.5750    7.7141 C.3     1  UNL1        0.0939
     11 N          63.3919   87.3329   12.3371 N.am    1  UNL1       -0.2978
     12 C          62.8941   85.9585   12.6736 C.2     1  UNL1        0.2257
     13 O          61.5047   85.5479   12.2850 O.2     1  UNL1       -0.2748
     14 H          64.3038   87.6023   12.5922 H       1  UNL1        0.1498
     15 C          63.7857   84.9947   13.3989 C.3     1  UNL1        0.0884
     16 C          64.7490   84.4569   14.4153 C.3     1  UNL1        0.0135
     17 C          64.3017   85.8867   14.4889 C.3     1  UNL1        0.0135
     18 C          63.5794   83.7678   12.5608 C.ar    1  UNL1       -0.0040
     19 C          64.2006   83.6770   11.1985 C.ar    1  UNL1       -0.0021
     20 C          63.9943   82.4502   10.3604 C.ar    1  UNL1        0.0111
     21 C          63.1669   81.3142   10.8847 C.ar    1  UNL1        0.0585
     22 CL         62.9607   80.0874   10.0466 Cl      1  UNL1       -0.0822
     23 C          62.5459   81.4050   12.2470 C.ar    1  UNL1        0.0225
     24 C          62.7521   82.6318   13.0851 C.ar    1  UNL1        0.0550
     25 CL         62.1309   82.7225   14.4475 Cl      1  UNL1       -0.0825
     26 C          62.8192   89.7625   11.6164 C.3     1  UNL1        0.0569
     27 C          63.5979   90.3570   12.7522 C.2     1  UNL1        0.0002
     28 C          63.5347   89.9235   14.1868 C.2     1  UNL1        0.0943
     29 N          64.4743   90.7880   14.9740 N.2     1  UNL1       -0.2482
     30 C          65.1181   91.7558   14.0261 C.2     1  UNL1        0.0631
     31 C          66.1276   92.8453   14.2358 C.3     1  UNL1        0.0717
     32 C          66.5955   93.6684   13.0723 C.2     1  UNL1       -0.0198
     33 C          66.0539   93.4020   11.6992 C.2     1  UNL1       -0.0042
     34 C          65.0444   92.3125   11.4894 C.2     1  UNL1        0.0006
     35 C          64.5765   91.4895   12.6528 C.2     1  UNL1        0.0115
@<TRIPOS>BOND
     1     2     3    1
     2     3     4    1
     3     4     5    1
     4     5     6    1
     5     6     7   am
     6     7     8    2
     7     7     1    1
     8     1    26    1
     9    26    27    1
    10    27    28    2
    11    28    29    1
    12    29    30    2
    13    30    31    1
    14    31    32    1
    15    32    33    2
    16    33    34    1
    17    34    35    2
    18     1    11    1
    19    11    12   am
    20    12    13    2
    21    12    15    1
    22    15    18    1
    23    18    19   ar
    24    19    20   ar
    25    20    21   ar
    26    21    22    1
    27    21    23   ar
    28    23    24   ar
    29    24    25    1
    30    15    16    1
    31    16    17    1
    32     6     9    1
    33     9    10    1
    34    10     3    1
    35    35    27    1
    36    17    15    1
    37    35    30    1
    38    24    18   ar
    39    11    14    1
@<TRIPOS>MOLECULE
*****
 35 39 0 0 0
SMALL
GASTEIGER

@<TRIPOS>ATOM
      1 C          64.0466   84.3340   13.5878 C.3     1  UNL1        0.1532
      2 C          62.7042   78.5863   10.0649 C.3     1  UNL1        0.0897
      3 N          62.8713   79.7049   11.0501 N.3     1  UNL1       -0.2686
      4 C          63.5453   80.9781   10.6322 C.3     1  UNL1        0.0939
      5 C          63.7124   82.0967   11.6174 C.3     1  UNL1        0.1108
      6 N          63.2055   81.9423   13.0206 N.am    1  UNL1       -0.2753
      7 C          63.3725   83.0609   14.0059 C.2     1  UNL1        0.2439
      8 O          62.8656   82.9064   15.4091 O.2     1  UNL1       -0.2731
      9 C          62.5314   80.6691   13.4387 C.3     1  UNL1        0.1108
     10 C          62.3643   79.5504   12.4534 C.3     1  UNL1        0.0939
     11 N          63.9463   84.8042   12.1670 N.am    1  UNL1       -0.2978
     12 C          62.6588   85.3809   11.6570 C.2     1  UNL1        0.2257
     13 O          61.4718   85.4873   12.5678 O.2     1  UNL1       -0.2748
     14 H          64.7254   84.7344   11.5692 H       1  UNL1        0.1498
     15 C          62.5585   85.8511   10.2362 C.3     1  UNL1        0.0884
     16 C          62.7055   85.8685    8.7434 C.3     1  UNL1        0.0135
     17 C          63.2357   84.7106    9.5358 C.3     1  UNL1        0.0135
     18 C          61.8464   87.1551   10.4430 C.ar    1  UNL1       -0.0040
     19 C          62.4548   88.2114   11.3171 C.ar    1  UNL1       -0.0021
     20 C          61.7427   89.5153   11.5239 C.ar    1  UNL1        0.0111
     21 C          60.4222   89.7628   10.8566 C.ar    1  UNL1        0.0585
     22 CL         59.7102   91.0667   11.0634 Cl      1  UNL1       -0.0822
     23 C          59.8139   88.7064    9.9825 C.ar    1  UNL1        0.0225
     24 C          60.5260   87.4025    9.7757 C.ar    1  UNL1        0.0550
     25 CL         59.9176   86.3462    8.9016 Cl      1  UNL1       -0.0825
     26 C          64.8211   85.1369   14.5907 C.3     1  UNL1        0.0569
     27 C          64.1099   86.1135   15.4797 C.2     1  UNL1        0.0002
     28 C          63.3140   85.7731   16.7047 C.2     1  UNL1        0.0943
     29 N          62.7819   87.0512   17.2818 N.2     1  UNL1       -0.2482
     30 C          63.2489   88.1817   16.4136 C.2     1  UNL1        0.0631
     31 C          63.0330   89.6639   16.4932 C.3     1  UNL1        0.0717
     32 C          63.6376   90.5666   15.4591 C.2     1  UNL1       -0.0198
     33 C          64.4583   89.9871   14.3453 C.2     1  UNL1       -0.0042
     34 C          64.6744   88.5049   14.2656 C.2     1  UNL1        0.0006
     35 C          64.0697   87.6022   15.2997 C.2     1  UNL1        0.0115
@<TRIPOS>BOND
     1     2     3    1
     2     3     4    1
     3     4     5    1
     4     5     6    1
     5     6     7   am
     6     7     8    2
     7     7     1    1
     8     1    26    1
     9    26    27    1
    10    27    28    2
    11    28    29    1
    12    29    30    2
    13    30    31    1
    14    31    32    1
    15    32    33    2
    16    33    34    1
    17    34    35    2
    18     1    11    1
    19    11    12   am
    20    12    13    2
    21    12    15    1
    22    15    18    1
    23    18    19   ar
    24    19    20   ar
    25    20    21   ar
    26    21    22    1
    27    21    23   ar
    28    23    24   ar
    29    24    25    1
    30    15    16    1
    31    16    17    1
    32     6     9    1
    33     9    10    1
    34    10     3    1
    35    35    27    1
    36    17    15    1
    37    35    30    1
    38    24    18   ar
    39    11    14    1
@<TRIPOS>MOLECULE
*****
 35 39 0 0 0
SMALL
GASTEIGER

@<TRIPOS>ATOM
      1 C          63.7183   90.0496   13.3648 C.3     1  UNL1        0.1532
      2 C          68.5966   94.1743   15.9022 C.3     1  UNL1        0.0897
      3 N          67.5267   93.4590   15.1318 N.3     1  UNL1       -0.2686
      4 C          66.9282   92.1957   15.6758 C.3     1  UNL1        0.0939
      5 C          65.8582   91.4803   14.9055 C.3     1  UNL1        0.1108
      6 N          65.3868   92.0282   13.5911 N.am    1  UNL1       -0.2753
      7 C          64.3168   91.3129   12.8208 C.2     1  UNL1        0.2439
      8 O          63.8454   91.8607   11.5064 O.2     1  UNL1       -0.2731
      9 C          65.9853   93.2914   13.0471 C.3     1  UNL1        0.1108
     10 C          67.0553   94.0069   13.8175 C.3     1  UNL1        0.0939
     11 N          62.2727   89.7367   13.1157 N.am    1  UNL1       -0.2978
     12 C          61.8303   89.2623   11.7631 C.2     1  UNL1        0.2257
     13 O          62.8336   89.1008   10.6598 O.2     1  UNL1       -0.2748
     14 H          61.6142   89.8426   13.8398 H       1  UNL1        0.1498
     15 C          60.3847   88.9493   11.5140 C.3     1  UNL1        0.0884
     16 C          58.8929   88.9590   11.6713 C.3     1  UNL1        0.0135
     17 C          59.7500   89.7696   12.5976 C.3     1  UNL1        0.0135
     18 C          60.5172   88.0202   10.3437 C.ar    1  UNL1       -0.0040
     19 C          60.0714   88.4620    8.9813 C.ar    1  UNL1       -0.0021
     20 C          60.2039   87.5330    7.8110 C.ar    1  UNL1        0.0111
     21 C          60.7821   86.1623    8.0033 C.ar    1  UNL1        0.0585
     22 CL         60.9146   85.2333    6.8331 Cl      1  UNL1       -0.0822
     23 C          61.2278   85.7206    9.3658 C.ar    1  UNL1        0.0225
     24 C          61.0954   86.6496   10.5360 C.ar    1  UNL1        0.0550
     25 CL         61.5411   86.2079   11.8985 Cl      1  UNL1       -0.0825
     26 C          64.5656   89.0992   14.1580 C.3     1  UNL1        0.0569
     27 C          63.9290   88.1905   15.1673 C.2     1  UNL1        0.0002
     28 C          63.2713   88.6164   16.4464 C.2     1  UNL1        0.0943
     29 N          62.7741   87.3853   17.1443 N.2     1  UNL1       -0.2482
     30 C          63.1245   86.1985   16.2967 C.2     1  UNL1        0.0631
     31 C          62.8859   84.7289   16.4795 C.3     1  UNL1        0.0717
     32 C          63.3610   83.7569   15.4405 C.2     1  UNL1       -0.0198
     33 C          64.0748   84.2545   14.2186 C.2     1  UNL1       -0.0042
     34 C          64.3134   85.7241   14.0358 C.2     1  UNL1        0.0006
     35 C          63.8383   86.6961   15.0748 C.2     1  UNL1        0.0115
@<TRIPOS>BOND
     1     2     3    1
     2     3     4    1
     3     4     5    1
     4     5     6    1
     5     6     7   am
     6     7     8    2
     7     7     1    1
     8     1    26    1
     9    26    27    1
    10    27    28    2
    11    28    29    1
    12    29    30    2
    13    30    31    1
    14    31    32    1
    15    32    33    2
    16    33    34    1
    17    34    35    2
    18     1    11    1
    19    11    12   am
    20    12    13    2
    21    12    15    1
    22    15    18    1
    23    18    19   ar
    24    19    20   ar
    25    20    21   ar
    26    21    22    1
    27    21    23   ar
    28    23    24   ar
    29    24    25    1
    30    15    16    1
    31    16    17    1
    32     6     9    1
    33     9    10    1
    34    10     3    1
    35    35    27    1
    36    17    15    1
    37    35    30    1
    38    24    18   ar
    39    11    14    1
@<TRIPOS>MOLECULE
*****
 35 39 0 0 0
SMALL
GASTEIGER

@<TRIPOS>ATOM
      1 C          64.1604   89.2117   14.2346 C.3     1  UNL1        0.1532
      2 C          60.1602   89.1332    8.6452 C.3     1  UNL1        0.0897
      3 N          60.7937   89.2212   10.0020 N.3     1  UNL1       -0.2686
      4 C          62.2596   88.9479   10.1644 C.3     1  UNL1        0.0939
      5 C          62.8933   89.0358   11.5211 C.3     1  UNL1        0.1108
      6 N          62.0609   89.3970   12.7156 N.am    1  UNL1       -0.2753
      7 C          62.6944   89.4850   14.0723 C.2     1  UNL1        0.2439
      8 O          61.8621   89.8462   15.2668 O.2     1  UNL1       -0.2731
      9 C          60.5950   89.6703   12.5533 C.3     1  UNL1        0.1108
     10 C          59.9613   89.5823   11.1964 C.3     1  UNL1        0.0939
     11 N          65.1055   90.3391   14.5275 N.am    1  UNL1       -0.2978
     12 C          65.2675   91.4574   13.5411 C.2     1  UNL1        0.2257
     13 O          64.4843   91.4485   12.2618 O.2     1  UNL1       -0.2748
     14 H          65.6196   90.3450   15.3672 H       1  UNL1        0.1498
     15 C          66.2126   92.5848   13.8340 C.3     1  UNL1        0.0884
     16 C          67.0374   93.5666   14.6124 C.3     1  UNL1        0.0135
     17 C          66.1943   92.5572   15.3336 C.3     1  UNL1        0.0135
     18 C          66.5592   93.0040   12.4360 C.ar    1  UNL1       -0.0040
     19 C          65.7576   94.0720   11.7528 C.ar    1  UNL1       -0.0021
     20 C          66.1041   94.4912   10.3549 C.ar    1  UNL1        0.0111
     21 C          67.2524   93.8424    9.6403 C.ar    1  UNL1        0.0585
     22 CL         67.5990   94.2617    8.2424 Cl      1  UNL1       -0.0822
     23 C          68.0540   92.7745   10.3236 C.ar    1  UNL1        0.0225
     24 C          67.7075   92.3552   11.7214 C.ar    1  UNL1        0.0550
     25 CL         68.5091   91.2873   12.4047 Cl      1  UNL1       -0.0825
     26 C          64.6812   87.8110   14.1040 C.3     1  UNL1        0.0569
     27 C          64.0001   86.6872   14.8272 C.2     1  UNL1        0.0002
     28 C          63.6081   86.6796   16.2750 C.2     1  UNL1        0.0943
     29 N          62.9572   85.3614   16.5722 N.2     1  UNL1       -0.2482
     30 C          62.9468   84.5541   15.3080 C.2     1  UNL1        0.0631
     31 C          62.4337   83.1788   14.9994 C.3     1  UNL1        0.0717
     32 C          62.5652   82.6229   13.6124 C.2     1  UNL1       -0.0198
     33 C          63.2097   83.4423   12.5340 C.2     1  UNL1       -0.0042
     34 C          63.7228   84.8177   12.8425 C.2     1  UNL1        0.0006
     35 C          63.5914   85.3736   14.2295 C.2     1  UNL1        0.0115
@<TRIPOS>BOND
     1     2     3    1
     2     3     4    1
     3     4     5    1
     4     5     6    1
     5     6     7   am
     6     7     8    2
     7     7     1    1
     8     1    26    1
     9    26    27    1
    10    27    28    2
    11    28    29    1
    12    29    30    2
    13    30    31    1
    14    31    32    1
    15    32    33    2
    16    33    34    1
    17    34    35    2
    18     1    11    1
    19    11    12   am
    20    12    13    2
    21    12    15    1
    22    15    18    1
    23    18    19   ar
    24    19    20   ar
    25    20    21   ar
    26    21    22    1
    27    21    23   ar
    28    23    24   ar
    29    24    25    1
    30    15    16    1
    31    16    17    1
    32     6     9    1
    33     9    10    1
    34    10     3    1
    35    35    27    1
    36    17    15    1
    37    35    30    1
    38    24    18   ar
    39    11    14    1
@<TRIPOS>MOLECULE
*****
 35 39 0 0 0
SMALL
GASTEIGER

@<TRIPOS>ATOM
      1 C          63.4133   88.7755   13.2889 C.3     1  UNL1        0.1532
      2 C          67.6660   93.5241   15.8608 C.3     1  UNL1        0.0897
      3 N          66.5754   92.5506   15.5248 N.3     1  UNL1       -0.2686
      4 C          66.6851   91.6959   14.2970 C.3     1  UNL1        0.0939
      5 C          65.5945   90.7224   13.9609 C.3     1  UNL1        0.1108
      6 N          64.3942   90.6036   14.8526 N.am    1  UNL1       -0.2753
      7 C          63.3036   89.6302   14.5167 C.2     1  UNL1        0.2439
      8 O          62.1033   89.5114   15.4084 O.2     1  UNL1       -0.2731
      9 C          64.2845   91.4583   16.0804 C.3     1  UNL1        0.1108
     10 C          65.3751   92.4319   16.4165 C.3     1  UNL1        0.0939
     11 N          62.7406   89.1997   12.0171 N.am    1  UNL1       -0.2978
     12 C          61.6479   88.3566   11.4294 C.2     1  UNL1        0.2257
     13 O          61.2281   87.0893   12.1133 O.2     1  UNL1       -0.2748
     14 H          63.0161   90.0314   11.5682 H       1  UNL1        0.1498
     15 C          60.9752   88.7808   10.1576 C.3     1  UNL1        0.0884
     16 C          60.1859   89.6118    9.1898 C.3     1  UNL1        0.0135
     17 C          60.4063   90.0993   10.5910 C.3     1  UNL1        0.0135
     18 C          61.3104   87.6096    9.2823 C.ar    1  UNL1       -0.0040
     19 C          62.7165   87.0897    9.2312 C.ar    1  UNL1       -0.0021
     20 C          63.0517   85.9186    8.3560 C.ar    1  UNL1        0.0111
     21 C          61.9808   85.2673    7.5319 C.ar    1  UNL1        0.0585
     22 CL         62.3160   84.0962    6.6567 Cl      1  UNL1       -0.0822
     23 C          60.5747   85.7873    7.5831 C.ar    1  UNL1        0.0225
     24 C          60.2395   86.9584    8.4583 C.ar    1  UNL1        0.0550
     25 CL         58.8333   87.4783    8.5094 Cl      1  UNL1       -0.0825
     26 C          64.1959   87.4964   13.3329 C.3     1  UNL1        0.0569
     27 C          63.7299   86.3615   14.1958 C.2     1  UNL1        0.0002
     28 C          63.6033   86.3844   15.6902 C.2     1  UNL1        0.0943
     29 N          63.1038   85.0414   16.1337 N.2     1  UNL1       -0.2482
     30 C          62.9217   84.1884   14.9135 C.2     1  UNL1        0.0631
     31 C          62.4536   82.7741   14.7380 C.3     1  UNL1        0.0717
     32 C          62.3724   82.1757   13.3650 C.2     1  UNL1       -0.0198
     33 C          62.7594   82.9916   12.1673 C.2     1  UNL1       -0.0042
     34 C          63.2275   84.4059   12.3426 C.2     1  UNL1        0.0006
     35 C          63.3087   85.0043   13.7157 C.2     1  UNL1        0.0115
@<TRIPOS>BOND
     1     2     3    1
     2     3     4    1
     3     4     5    1
     4     5     6    1
     5     6     7   am
     6     7     8    2
     7     7     1    1
     8     1    26    1
     9    26    27    1
    10    27    28    2
    11    28    29    1
    12    29    30    2
    13    30    31    1
    14    31    32    1
    15    32    33    2
    16    33    34    1
    17    34    35    2
    18     1    11    1
    19    11    12   am
    20    12    13    2
    21    12    15    1
    22    15    18    1
    23    18    19   ar
    24    19    20   ar
    25    20    21   ar
    26    21    22    1
    27    21    23   ar
    28    23    24   ar
    29    24    25    1
    30    15    16    1
    31    16    17    1
    32     6     9    1
    33     9    10    1
    34    10     3    1
    35    35    27    1
    36    17    15    1
    37    35    30    1
    38    24    18   ar
    39    11    14    1
@<TRIPOS>MOLECULE
*****
 35 39 0 0 0
SMALL
GASTEIGER

@<TRIPOS>ATOM
      1 C          63.9793   90.2325   14.6513 C.3     1  UNL1        0.1532
      2 C          63.9106   83.3605   14.5102 C.3     1  UNL1        0.0897
      3 N          63.8660   84.8279   14.8176 N.3     1  UNL1       -0.2686
      4 C          64.1131   85.8301   13.7292 C.3     1  UNL1        0.0939
      5 C          64.0685   87.2976   14.0365 C.3     1  UNL1        0.1108
      6 N          63.7769   87.7630   15.4324 N.am    1  UNL1       -0.2753
      7 C          63.7323   89.2304   15.7398 C.2     1  UNL1        0.2439
      8 O          63.4406   89.6958   17.1356 O.2     1  UNL1       -0.2731
      9 C          63.5298   86.7609   16.5208 C.3     1  UNL1        0.1108
     10 C          63.5744   85.2933   16.2134 C.3     1  UNL1        0.0939
     11 N          65.3762   90.6957   14.3613 N.am    1  UNL1       -0.2978
     12 C          65.9156   91.9211   15.0376 C.2     1  UNL1        0.2257
     13 O          65.0582   92.6833   16.0040 O.2     1  UNL1       -0.2748
     14 H          65.9390   90.1954   13.7270 H       1  UNL1        0.1498
     15 C          67.3125   92.3843   14.7476 C.3     1  UNL1        0.0884
     16 C          68.7690   92.6823   14.9480 C.3     1  UNL1        0.0135
     17 C          67.9690   92.0697   16.0591 C.3     1  UNL1        0.0135
     18 C          67.1413   92.8598   13.3352 C.ar    1  UNL1       -0.0040
     19 C          66.2195   94.0046   13.0358 C.ar    1  UNL1       -0.0021
     20 C          66.0483   94.4801   11.6235 C.ar    1  UNL1        0.0111
     21 C          66.7989   93.8107   10.5106 C.ar    1  UNL1        0.0585
     22 CL         66.6277   94.2862    9.0983 Cl      1  UNL1       -0.0822
     23 C          67.7208   92.6659   10.8101 C.ar    1  UNL1        0.0225
     24 C          67.8920   92.1904   12.2224 C.ar    1  UNL1        0.0550
     25 CL         68.8138   91.0456   12.5217 Cl      1  UNL1       -0.0825
     26 C          62.8294   90.7714   13.8529 C.3     1  UNL1        0.0569
     27 C          62.8085   90.6058   12.3623 C.2     1  UNL1        0.0002
     28 C          63.7728   91.2225   11.3929 C.2     1  UNL1        0.0943
     29 N          63.3799   90.7921   10.0108 N.2     1  UNL1       -0.2482
     30 C          62.1727   89.9093   10.1259 C.2     1  UNL1        0.0631
     31 C          61.3493   89.1954    9.0952 C.3     1  UNL1        0.0717
     32 C          60.1728   88.3663    9.5177 C.2     1  UNL1       -0.0198
     33 C          59.8197   88.2512   10.9709 C.2     1  UNL1       -0.0042
     34 C          60.6431   88.9650   12.0017 C.2     1  UNL1        0.0006
     35 C          61.8195   89.7941   11.5792 C.2     1  UNL1        0.0115
@<TRIPOS>BOND
     1     2     3    1
     2     3     4    1
     3     4     5    1
     4     5     6    1
     5     6     7   am
     6     7     8    2
     7     7     1    1
     8     1    26    1
     9    26    27    1
    10    27    28    2
    11    28    29    1
    12    29    30    2
    13    30    31    1
    14    31    32    1
    15    32    33    2
    16    33    34    1
    17    34    35    2
    18     1    11    1
    19    11    12   am
    20    12    13    2
    21    12    15    1
    22    15    18    1
    23    18    19   ar
    24    19    20   ar
    25    20    21   ar
    26    21    22    1
    27    21    23   ar
    28    23    24   ar
    29    24    25    1
    30    15    16    1
    31    16    17    1
    32     6     9    1
    33     9    10    1
    34    10     3    1
    35    35    27    1
    36    17    15    1
    37    35    30    1
    38    24    18   ar
    39    11    14    1
@<TRIPOS>MOLECULE
*****
 35 39 0 0 0
SMALL
GASTEIGER

@<TRIPOS>ATOM
      1 C          62.4509   87.9691   11.3080 C.3     1  UNL1        0.1532
      2 C          58.3306   89.8123    6.1238 C.3     1  UNL1        0.0897
      3 N          59.2276   89.1543    7.1299 N.3     1  UNL1       -0.2686
      4 C          59.7599   89.9431    8.2894 C.3     1  UNL1        0.0939
      5 C          60.6569   89.2851    9.2956 C.3     1  UNL1        0.1108
      6 N          61.0216   87.8383    9.1424 N.am    1  UNL1       -0.2753
      7 C          61.9186   87.1802   10.1485 C.2     1  UNL1        0.2439
      8 O          62.2832   85.7333    9.9953 O.2     1  UNL1       -0.2731
      9 C          60.4893   87.0493    7.9830 C.3     1  UNL1        0.1108
     10 C          59.5922   87.7074    6.9767 C.3     1  UNL1        0.0939
     11 N          63.3812   87.3226   12.2911 N.am    1  UNL1       -0.2978
     12 C          62.9800   86.0514   12.9789 C.2     1  UNL1        0.2257
     13 O          61.6486   85.4267   12.6837 O.2     1  UNL1       -0.2748
     14 H          64.2550   87.7326   12.4849 H       1  UNL1        0.1498
     15 C          63.9103   85.4048   13.9621 C.3     1  UNL1        0.0884
     16 C          64.9651   85.2588   15.0186 C.3     1  UNL1        0.0135
     17 C          64.5917   86.6214   14.5148 C.3     1  UNL1        0.0135
     18 C          63.5520   83.9636   13.7508 C.ar    1  UNL1       -0.0040
     19 C          64.1567   83.1999   12.6101 C.ar    1  UNL1       -0.0021
     20 C          63.7984   81.7588   12.3988 C.ar    1  UNL1        0.0111
     21 C          62.8354   81.0813   13.3282 C.ar    1  UNL1        0.0585
     22 CL         62.4772   79.6401   13.1169 Cl      1  UNL1       -0.0822
     23 C          62.2308   81.8450   14.4689 C.ar    1  UNL1        0.0225
     24 C          62.5890   83.2862   14.6802 C.ar    1  UNL1        0.0550
     25 CL         61.9843   84.0499   15.8209 Cl      1  UNL1       -0.0825
     26 C          62.0529   89.4047   11.4842 C.3     1  UNL1        0.0569
     27 C          63.0981   90.4803   11.4662 C.2     1  UNL1        0.0002
     28 C          63.4423   91.3558   10.2979 C.2     1  UNL1        0.0943
     29 N          64.5396   92.2859   10.7230 N.2     1  UNL1       -0.2482
     30 C          64.8736   91.9853   12.1541 C.2     1  UNL1        0.0631
     31 C          65.8739   92.5834   13.0984 C.3     1  UNL1        0.0717
     32 C          65.9833   92.0657   14.5019 C.2     1  UNL1       -0.0198
     33 C          65.0924   90.9498   14.9613 C.2     1  UNL1       -0.0042
     34 C          64.0921   90.3516   14.0170 C.2     1  UNL1        0.0006
     35 C          63.9827   90.8693   12.6135 C.2     1  UNL1        0.0115
@<TRIPOS>BOND
     1     2     3    1
     2     3     4    1
     3     4     5    1
     4     5     6    1
     5     6     7   am
     6     7     8    2
     7     7     1    1
     8     1    26    1
     9    26    27    1
    10    27    28    2
    11    28    29    1
    12    29    30    2
    13    30    31    1
    14    31    32    1
    15    32    33    2
    16    33    34    1
    17    34    35    2
    18     1    11    1
    19    11    12   am
    20    12    13    2
    21    12    15    1
    22    15    18    1
    23    18    19   ar
    24    19    20   ar
    25    20    21   ar
    26    21    22    1
    27    21    23   ar
    28    23    24   ar
    29    24    25    1
    30    15    16    1
    31    16    17    1
    32     6     9    1
    33     9    10    1
    34    10     3    1
    35    35    27    1
    36    17    15    1
    37    35    30    1
    38    24    18   ar
    39    11    14    1
@<TRIPOS>MOLECULE
*****
 35 39 0 0 0
SMALL
GASTEIGER

@<TRIPOS>ATOM
      1 C          63.8582   86.3395   13.5662 C.3     1  UNL1        0.1532
      2 C          64.0478   92.3936   16.8161 C.3     1  UNL1        0.0897
      3 N          63.8980   90.9752   16.3517 N.3     1  UNL1       -0.2686
      4 C          64.3075   90.5946   14.9597 C.3     1  UNL1        0.0939
      5 C          64.1577   89.1763   14.4952 C.3     1  UNL1        0.1108
      6 N          63.5985   88.1384   15.4226 N.am    1  UNL1       -0.2753
      7 C          63.4487   86.7201   14.9582 C.2     1  UNL1        0.2439
      8 O          62.8895   85.6822   15.8856 O.2     1  UNL1       -0.2731
      9 C          63.1890   88.5190   16.8146 C.3     1  UNL1        0.1108
     10 C          63.3388   89.9374   17.2791 C.3     1  UNL1        0.0939
     11 N          63.5500   87.2536   12.4175 N.am    1  UNL1       -0.2978
     12 C          62.3511   86.9948   11.5540 C.2     1  UNL1        0.2257
     13 O          61.4603   85.8222   11.8391 O.2     1  UNL1       -0.2748
     14 H          64.1347   88.0232   12.2303 H       1  UNL1        0.1498
     15 C          62.0430   87.9089   10.4052 C.3     1  UNL1        0.0884
     16 C          61.7881   89.1729    9.6387 C.3     1  UNL1        0.0135
     17 C          62.0892   89.2338   11.1068 C.3     1  UNL1        0.0135
     18 C          61.8897   86.9013    9.3045 C.ar    1  UNL1       -0.0040
     19 C          63.0693   86.0858    8.8647 C.ar    1  UNL1       -0.0021
     20 C          62.9160   85.0783    7.7640 C.ar    1  UNL1        0.0111
     21 C          61.5831   84.8864    7.1032 C.ar    1  UNL1        0.0585
     22 CL         61.4299   83.8790    6.0025 Cl      1  UNL1       -0.0822
     23 C          60.4036   85.7020    7.5430 C.ar    1  UNL1        0.0225
     24 C          60.5568   86.7095    8.6437 C.ar    1  UNL1        0.0550
     25 CL         59.3772   87.5251    9.0835 Cl      1  UNL1       -0.0825
     26 C          64.5758   85.0449   13.3230 C.3     1  UNL1        0.0569
     27 C          63.8587   83.7419   13.5176 C.2     1  UNL1        0.0002
     28 C          63.2540   83.2512   14.7996 C.2     1  UNL1        0.0943
     29 N          62.6419   81.9068   14.5387 N.2     1  UNL1       -0.2482
     30 C          62.8683   81.5667   13.0955 C.2     1  UNL1        0.0631
     31 C          62.4869   80.3708   12.2743 C.3     1  UNL1        0.0717
     32 C          62.8574   80.3090   10.8221 C.2     1  UNL1       -0.0198
     33 C          63.6094   81.4431   10.1910 C.2     1  UNL1       -0.0042
     34 C          63.9909   82.6390   11.0122 C.2     1  UNL1        0.0006
     35 C          63.6203   82.7009   12.4644 C.2     1  UNL1        0.0115
@<TRIPOS>BOND
     1     2     3    1
     2     3     4    1
     3     4     5    1
     4     5     6    1
     5     6     7   am
     6     7     8    2
     7     7     1    1
     8     1    26    1
     9    26    27    1
    10    27    28    2
    11    28    29    1
    12    29    30    2
    13    30    31    1
    14    31    32    1
    15    32    33    2
    16    33    34    1
    17    34    35    2
    18     1    11    1
    19    11    12   am
    20    12    13    2
    21    12    15    1
    22    15    18    1
    23    18    19   ar
    24    19    20   ar
    25    20    21   ar
    26    21    22    1
    27    21    23   ar
    28    23    24   ar
    29    24    25    1
    30    15    16    1
    31    16    17    1
    32     6     9    1
    33     9    10    1
    34    10     3    1
    35    35    27    1
    36    17    15    1
    37    35    30    1
    38    24    18   ar
    39    11    14    1
@<TRIPOS>MOLECULE
*****
 35 39 0 0 0
SMALL
GASTEIGER

@<TRIPOS>ATOM
      1 C          62.3584   88.2799   11.3507 C.3     1  UNL1        0.1532
      2 C          61.8904   84.1721    5.8592 C.3     1  UNL1        0.0897
      3 N          61.7085   85.0795    7.0396 N.3     1  UNL1       -0.2686
      4 C          62.9039   85.5576    7.8093 C.3     1  UNL1        0.0939
      5 C          62.7221   86.4651    8.9898 C.3     1  UNL1        0.1108
      6 N          61.3448   86.8944    9.4006 N.am    1  UNL1       -0.2753
      7 C          61.1629   87.8019   10.5810 C.2     1  UNL1        0.2439
      8 O          59.7857   88.2312   10.9918 O.2     1  UNL1       -0.2731
      9 C          60.1494   86.4164    8.6309 C.3     1  UNL1        0.1108
     10 C          60.3312   85.5089    7.4504 C.3     1  UNL1        0.0939
     11 N          63.2251   87.2951   12.0779 N.am    1  UNL1       -0.2978
     12 C          62.7720   85.8744   12.2408 C.2     1  UNL1        0.2257
     13 O          61.4524   85.4386   11.6764 O.2     1  UNL1       -0.2748
     14 H          64.0912   87.5811   12.4484 H       1  UNL1        0.1498
     15 C          63.6387   84.8895   12.9680 C.3     1  UNL1        0.0884
     16 C          64.5739   83.7410   13.2055 C.3     1  UNL1        0.0135
     17 C          64.1370   84.0763   11.8104 C.3     1  UNL1        0.0135
     18 C          63.4415   85.3608   14.3785 C.ar    1  UNL1       -0.0040
     19 C          64.1391   86.5983   14.8601 C.ar    1  UNL1       -0.0021
     20 C          63.9419   87.0695   16.2705 C.ar    1  UNL1        0.0111
     21 C          63.0472   86.3032   17.1991 C.ar    1  UNL1        0.0585
     22 CL         62.8500   86.7744   18.6094 Cl      1  UNL1       -0.0822
     23 C          62.3497   85.0657   16.7173 C.ar    1  UNL1        0.0225
     24 C          62.5468   84.5944   15.3070 C.ar    1  UNL1        0.0550
     25 CL         61.8492   83.3569   14.8253 Cl      1  UNL1       -0.0825
     26 C          62.6872   89.7429   11.3930 C.3     1  UNL1        0.0569
     27 C          63.4167   90.3137   12.5728 C.2     1  UNL1        0.0002
     28 C          63.2750   89.8669   13.9976 C.2     1  UNL1        0.0943
     29 N          64.1868   90.7087   14.8403 N.2     1  UNL1       -0.2482
     30 C          64.8921   91.6757   13.9362 C.2     1  UNL1        0.0631
     31 C          65.9062   92.7470   14.2079 C.3     1  UNL1        0.0717
     32 C          66.4444   93.5742   13.0783 C.2     1  UNL1       -0.0198
     33 C          65.9685   93.3302   11.6769 C.2     1  UNL1       -0.0042
     34 C          64.9544   92.2588   11.4052 C.2     1  UNL1        0.0006
     35 C          64.4162   91.4316   12.5348 C.2     1  UNL1        0.0115
@<TRIPOS>BOND
     1     2     3    1
     2     3     4    1
     3     4     5    1
     4     5     6    1
     5     6     7   am
     6     7     8    2
     7     7     1    1
     8     1    26    1
     9    26    27    1
    10    27    28    2
    11    28    29    1
    12    29    30    2
    13    30    31    1
    14    31    32    1
    15    32    33    2
    16    33    34    1
    17    34    35    2
    18     1    11    1
    19    11    12   am
    20    12    13    2
    21    12    15    1
    22    15    18    1
    23    18    19   ar
    24    19    20   ar
    25    20    21   ar
    26    21    22    1
    27    21    23   ar
    28    23    24   ar
    29    24    25    1
    30    15    16    1
    31    16    17    1
    32     6     9    1
    33     9    10    1
    34    10     3    1
    35    35    27    1
    36    17    15    1
    37    35    30    1
    38    24    18   ar
    39    11    14    1
