@<TRIPOS>MOLECULE
*****
 32 36 0 0 0
SMALL
GASTEIGER

@<TRIPOS>ATOM
      1 N          62.3896   86.2644   11.7480 N.pl3   1  UNL1       -0.2872
      2 N          64.4668   89.5534   14.0103 N.pl3   1  UNL1       -0.2933
      3 C          64.5398   88.1398   14.5066 C.3     1  UNL1        0.0939
      4 C          63.8474   87.0435   13.7525 C.3     1  UNL1        0.0416
      5 C          63.0820   87.3608   12.5021 C.3     1  UNL1        0.0807
      6 C          63.0089   88.7744   12.0058 C.3     1  UNL1        0.0416
      7 C          63.7013   89.8707   12.7599 C.3     1  UNL1        0.0939
      8 C          63.2345   91.2244   16.5281 C.3     1  UNL1        0.1551
      9 N          64.5928   91.4178   15.9217 N.ar    1  UNL1       -0.2360
     10 N          65.6231   92.4133   16.3661 N.ar    1  UNL1       -0.1725
     11 C          66.8263   92.2605   15.4835 C.ar    1  UNL1        0.0810
     12 C          66.5396   91.1706   14.4936 C.ar    1  UNL1        0.0504
     13 C          65.1592   90.6498   14.7644 C.ar    1  UNL1        0.1298
     14 C          68.0937   93.0576   15.5747 C.3     1  UNL1        0.0421
     15 C          68.8250   94.2879   16.0236 C.3     1  UNL1        0.0064
     16 C          69.5574   93.2079   15.2839 C.3     1  UNL1        0.0064
     17 C          62.4906   84.8461   12.2255 C.ar    1  UNL1        0.0515
     18 C          62.7951   83.7467   11.2515 C.ar    1  UNL1        0.0148
     19 C          62.8961   82.3283   11.7291 C.ar    1  UNL1        0.0051
     20 C          62.6926   82.0093   13.1805 C.ar    1  UNL1        0.0715
     21 C          62.3882   83.1087   14.1545 C.ar    1  UNL1        0.0051
     22 C          62.2871   84.5271   13.6770 C.ar    1  UNL1        0.0148
     23 C          62.7937   80.5910   13.6580 C.3     1  UNL1        0.4186
     24 F          62.8947   79.1726   14.1356 F       1  UNL1       -0.1659
     25 F          61.3019   80.4575   13.5771 F       1  UNL1       -0.1659
     26 F          64.2855   80.7245   13.7390 F       1  UNL1       -0.1659
     27 C          61.5962   86.5865   10.5164 C.ar    1  UNL1        0.0710
     28 C          62.0019   86.0122    9.1915 C.ar    1  UNL1        0.0180
     29 C          61.2084   86.3343    7.9599 C.ar    1  UNL1        0.0220
     30 C          60.0094   87.2306    8.0533 C.ar    1  UNL1        0.0990
     31 N          59.6036   87.8049    9.3783 N.ar    1  UNL1       -0.2410
     32 C          60.3970   87.4829   10.6099 C.ar    1  UNL1        0.1136
@<TRIPOS>BOND
     1     8     9    1
     2     9    10   ar
     3    10    11   ar
     4    11    14    1
     5    14    15    1
     6    15    16    1
     7    11    12   ar
     8    12    13   ar
     9    13     2    1
    10     2     3    1
    11     3     4    1
    12     4     5    1
    13     5     1    1
    14     1    17    1
    15    17    18   ar
    16    18    19   ar
    17    19    20   ar
    18    20    23    1
    19    23    24    1
    20    23    25    1
    21    23    26    1
    22    20    21   ar
    23    21    22   ar
    24     1    27    1
    25    27    28   ar
    26    28    29   ar
    27    29    30   ar
    28    30    31   ar
    29    31    32   ar
    30     5     6    1
    31     6     7    1
    32    13     9   ar
    33     7     2    1
    34    16    14    1
    35    22    17   ar
    36    32    27   ar
@<TRIPOS>MOLECULE
*****
 32 36 0 0 0
SMALL
GASTEIGER

@<TRIPOS>ATOM
      1 N          62.0081   86.7320   10.7274 N.pl3   1  UNL1       -0.2872
      2 N          64.0471   90.5925   11.8179 N.pl3   1  UNL1       -0.2933
      3 C          63.4608   90.4147   10.4487 C.3     1  UNL1        0.0939
      4 C          62.7812   89.1278   10.0853 C.3     1  UNL1        0.0416
      5 C          62.6878   88.0189   11.0910 C.3     1  UNL1        0.0807
      6 C          63.2741   88.1967   12.4601 C.3     1  UNL1        0.0416
      7 C          63.9537   89.4835   12.8236 C.3     1  UNL1        0.0939
      8 C          65.0153   91.4727   14.8074 C.3     1  UNL1        0.1551
      9 N          65.1718   92.2839   13.5555 N.ar    1  UNL1       -0.2360
     10 N          65.8007   93.6422   13.4579 N.ar    1  UNL1       -0.1725
     11 C          65.7444   94.0771   12.0234 C.ar    1  UNL1        0.0810
     12 C          65.0807   92.9877   11.2345 C.ar    1  UNL1        0.0504
     13 C          64.7267   91.8794   12.1814 C.ar    1  UNL1        0.1298
     14 C          66.2612   95.3738   11.4743 C.3     1  UNL1        0.0421
     15 C          66.4681   96.8530   11.6134 C.3     1  UNL1        0.0064
     16 C          66.9492   96.1406   10.3842 C.3     1  UNL1        0.0064
     17 C          62.4056   85.4557   11.4078 C.ar    1  UNL1        0.0515
     18 C          62.1298   85.2679   12.8703 C.ar    1  UNL1        0.0148
     19 C          62.5273   83.9915   13.5506 C.ar    1  UNL1        0.0051
     20 C          63.2005   82.9029   12.7686 C.ar    1  UNL1        0.0715
     21 C          63.4763   83.0906   11.3061 C.ar    1  UNL1        0.0051
     22 C          63.0788   84.3669   10.6258 C.ar    1  UNL1        0.0148
     23 C          63.5980   81.6266   13.4489 C.3     1  UNL1        0.4186
     24 F          63.9955   80.3502   14.1294 F       1  UNL1       -0.1659
     25 F          63.2604   80.8586   12.2055 F       1  UNL1       -0.1659
     26 F          63.9356   82.3945   14.6924 F       1  UNL1       -0.1659
     27 C          60.9310   86.7215    9.6835 C.ar    1  UNL1        0.0710
     28 C          61.0679   85.8459    8.4734 C.ar    1  UNL1        0.0180
     29 C          59.9908   85.8354    7.4295 C.ar    1  UNL1        0.0220
     30 C          58.7768   86.7006    7.5957 C.ar    1  UNL1        0.0990
     31 N          58.6399   87.5763    8.8059 N.ar    1  UNL1       -0.2410
     32 C          59.7170   87.5868    9.8498 C.ar    1  UNL1        0.1136
@<TRIPOS>BOND
     1     8     9    1
     2     9    10   ar
     3    10    11   ar
     4    11    14    1
     5    14    15    1
     6    15    16    1
     7    11    12   ar
     8    12    13   ar
     9    13     2    1
    10     2     3    1
    11     3     4    1
    12     4     5    1
    13     5     1    1
    14     1    17    1
    15    17    18   ar
    16    18    19   ar
    17    19    20   ar
    18    20    23    1
    19    23    24    1
    20    23    25    1
    21    23    26    1
    22    20    21   ar
    23    21    22   ar
    24     1    27    1
    25    27    28   ar
    26    28    29   ar
    27    29    30   ar
    28    30    31   ar
    29    31    32   ar
    30     5     6    1
    31     6     7    1
    32    13     9   ar
    33     7     2    1
    34    16    14    1
    35    22    17   ar
    36    32    27   ar
@<TRIPOS>MOLECULE
*****
 32 36 0 0 0
SMALL
GASTEIGER

@<TRIPOS>ATOM
      1 N          62.8428   86.1751   12.3364 N.pl3   1  UNL1       -0.2872
      2 N          64.7811   89.6785   14.3905 N.pl3   1  UNL1       -0.2933
      3 C          64.8854   88.3069   14.9885 C.3     1  UNL1        0.0939
      4 C          64.2394   87.1391   14.3038 C.3     1  UNL1        0.0416
      5 C          63.4889   87.3430   13.0211 C.3     1  UNL1        0.0807
      6 C          63.3845   88.7146   12.4231 C.3     1  UNL1        0.0416
      7 C          64.0306   89.8824   13.1078 C.3     1  UNL1        0.0939
      8 C          63.4190   91.5449   16.6950 C.3     1  UNL1        0.1551
      9 N          64.8011   91.7043   16.1344 N.ar    1  UNL1       -0.2360
     10 N          65.7998   92.7494   16.5347 N.ar    1  UNL1       -0.1725
     11 C          67.0432   92.5375   15.7227 C.ar    1  UNL1        0.0810
     12 C          66.8129   91.3614   14.8207 C.ar    1  UNL1        0.0504
     13 C          65.4272   90.8464   15.0751 C.ar    1  UNL1        0.1298
     14 C          68.2967   93.3578   15.7994 C.3     1  UNL1        0.0421
     15 C          69.7723   93.4997   15.5701 C.3     1  UNL1        0.0064
     16 C          68.9922   94.6364   16.1614 C.3     1  UNL1        0.0064
     17 C          61.9833   86.3963   11.1271 C.ar    1  UNL1        0.0515
     18 C          62.3596   85.7732    9.8155 C.ar    1  UNL1        0.0148
     19 C          61.5001   85.9944    8.6062 C.ar    1  UNL1        0.0051
     20 C          60.2644   86.8385    8.7085 C.ar    1  UNL1        0.0715
     21 C          59.8882   87.4616   10.0201 C.ar    1  UNL1        0.0051
     22 C          60.7476   87.2404   11.2294 C.ar    1  UNL1        0.0148
     23 C          59.4050   87.0597    7.4992 C.3     1  UNL1        0.4186
     24 F          58.5455   87.2807    6.2898 F       1  UNL1       -0.1659
     25 F          59.2137   88.4931    7.8973 F       1  UNL1       -0.1659
     26 F          59.5963   85.6262    7.1011 F       1  UNL1       -0.1659
     27 C          63.0561   84.7862   12.8611 C.ar    1  UNL1        0.0710
     28 C          63.9773   83.8460   12.1418 C.ar    1  UNL1        0.0180
     29 C          64.1906   82.4570   12.6665 C.ar    1  UNL1        0.0220
     30 C          63.4829   82.0083   13.9105 C.ar    1  UNL1        0.0990
     31 N          62.5617   82.9485   14.6299 N.ar    1  UNL1       -0.2410
     32 C          62.3483   84.3375   14.1052 C.ar    1  UNL1        0.1136
@<TRIPOS>BOND
     1     8     9    1
     2     9    10   ar
     3    10    11   ar
     4    11    14    1
     5    14    15    1
     6    15    16    1
     7    11    12   ar
     8    12    13   ar
     9    13     2    1
    10     2     3    1
    11     3     4    1
    12     4     5    1
    13     5     1    1
    14     1    17    1
    15    17    18   ar
    16    18    19   ar
    17    19    20   ar
    18    20    23    1
    19    23    24    1
    20    23    25    1
    21    23    26    1
    22    20    21   ar
    23    21    22   ar
    24     1    27    1
    25    27    28   ar
    26    28    29   ar
    27    29    30   ar
    28    30    31   ar
    29    31    32   ar
    30     5     6    1
    31     6     7    1
    32    13     9   ar
    33     7     2    1
    34    16    14    1
    35    22    17   ar
    36    32    27   ar
@<TRIPOS>MOLECULE
*****
 32 36 0 0 0
SMALL
GASTEIGER

@<TRIPOS>ATOM
      1 N          63.7960   89.1517   14.4107 N.pl3   1  UNL1       -0.2872
      2 N          61.5237   88.9474   10.5319 N.pl3   1  UNL1       -0.2933
      3 C          62.3724   87.7892   10.9658 C.3     1  UNL1        0.0939
      4 C          63.1299   87.8574   12.2587 C.3     1  UNL1        0.0416
      5 C          63.0385   89.0837   13.1177 C.3     1  UNL1        0.0807
      6 C          62.1898   90.2418   12.6838 C.3     1  UNL1        0.0416
      7 C          61.4324   90.1737   11.3910 C.3     1  UNL1        0.0939
      8 C          60.5478   86.2241    9.0215 C.3     1  UNL1        0.1551
      9 N          60.3177   87.6276    8.5448 N.ar    1  UNL1       -0.2360
     10 N          59.5985   88.0257    7.2900 N.ar    1  UNL1       -0.1725
     11 C          59.6026   89.5235    7.2088 C.ar    1  UNL1        0.0810
     12 C          60.3243   90.0510    8.4133 C.ar    1  UNL1        0.0504
     13 C          60.7662   88.8793    9.2390 C.ar    1  UNL1        0.1298
     14 C          58.9922   90.3488    6.1150 C.3     1  UNL1        0.0421
     15 C          59.1448   91.3102    4.9738 C.3     1  UNL1        0.0064
     16 C          57.7825   90.8169    5.3619 C.3     1  UNL1        0.0064
     17 C          64.7465   90.2841   14.6643 C.ar    1  UNL1        0.0515
     18 C          64.5082   91.2206   15.8115 C.ar    1  UNL1        0.0148
     19 C          65.4588   92.3530   16.0652 C.ar    1  UNL1        0.0051
     20 C          66.6475   92.5488   15.1716 C.ar    1  UNL1        0.0715
     21 C          66.8858   91.6122   14.0244 C.ar    1  UNL1        0.0051
     22 C          65.9353   90.4799   13.7707 C.ar    1  UNL1        0.0148
     23 C          67.5980   93.6811   15.4252 C.3     1  UNL1        0.4186
     24 F          68.5485   94.8135   15.6789 F       1  UNL1       -0.1659
     25 F          68.3297   92.8418   16.4302 F       1  UNL1       -0.1659
     26 F          66.8663   94.5204   14.4203 F       1  UNL1       -0.1659
     27 C          63.6030   88.0875   15.4499 C.ar    1  UNL1        0.0710
     28 C          62.9230   88.4186   16.7452 C.ar    1  UNL1        0.0180
     29 C          62.7299   87.3543   17.7845 C.ar    1  UNL1        0.0220
     30 C          63.2169   85.9589   17.5284 C.ar    1  UNL1        0.0990
     31 N          63.8969   85.6277   16.2330 N.ar    1  UNL1       -0.2410
     32 C          64.0900   86.6920   15.1938 C.ar    1  UNL1        0.1136
@<TRIPOS>BOND
     1     8     9    1
     2     9    10   ar
     3    10    11   ar
     4    11    14    1
     5    14    15    1
     6    15    16    1
     7    11    12   ar
     8    12    13   ar
     9    13     2    1
    10     2     3    1
    11     3     4    1
    12     4     5    1
    13     5     1    1
    14     1    17    1
    15    17    18   ar
    16    18    19   ar
    17    19    20   ar
    18    20    23    1
    19    23    24    1
    20    23    25    1
    21    23    26    1
    22    20    21   ar
    23    21    22   ar
    24     1    27    1
    25    27    28   ar
    26    28    29   ar
    27    29    30   ar
    28    30    31   ar
    29    31    32   ar
    30     5     6    1
    31     6     7    1
    32    13     9   ar
    33     7     2    1
    34    16    14    1
    35    22    17   ar
    36    32    27   ar
@<TRIPOS>MOLECULE
*****
 32 36 0 0 0
SMALL
GASTEIGER

@<TRIPOS>ATOM
      1 N          62.8539   84.9615   12.0586 N.pl3   1  UNL1       -0.2872
      2 N          64.2020   88.7628   14.0543 N.pl3   1  UNL1       -0.2933
      3 C          64.5040   87.4363   14.6860 C.3     1  UNL1        0.0939
      4 C          64.0546   86.1692   14.0207 C.3     1  UNL1        0.0416
      5 C          63.3033   86.2287   12.7238 C.3     1  UNL1        0.0807
      6 C          63.0013   87.5552   12.0922 C.3     1  UNL1        0.0416
      7 C          63.4506   88.8223   12.7574 C.3     1  UNL1        0.0939
      8 C          62.7124   90.2540   16.5458 C.3     1  UNL1        0.1551
      9 N          63.9667   90.7153   15.8647 N.ar    1  UNL1       -0.2360
     10 N          64.7564   91.9431   16.2092 N.ar    1  UNL1       -0.1725
     11 C          65.9293   92.0166   15.2770 C.ar    1  UNL1        0.0810
     12 C          65.8643   90.8342   14.3563 C.ar    1  UNL1        0.0504
     13 C          64.6513   90.0300   14.7195 C.ar    1  UNL1        0.1298
     14 C          66.9822   93.0849   15.2671 C.3     1  UNL1        0.0421
     15 C          67.4953   94.3985   14.7560 C.3     1  UNL1        0.0064
     16 C          68.2928   93.6216   15.7613 C.3     1  UNL1        0.0064
     17 C          62.6376   84.9294   10.5747 C.ar    1  UNL1        0.0515
     18 C          63.6170   84.2174    9.6893 C.ar    1  UNL1        0.0148
     19 C          63.4007   84.1853    8.2052 C.ar    1  UNL1        0.0051
     20 C          62.2051   84.8652    7.6067 C.ar    1  UNL1        0.0715
     21 C          61.2257   85.5771    8.4921 C.ar    1  UNL1        0.0051
     22 C          61.4420   85.6093    9.9761 C.ar    1  UNL1        0.0148
     23 C          61.9888   84.8331    6.1228 C.3     1  UNL1        0.4186
     24 F          61.7725   84.8010    4.6387 F       1  UNL1       -0.1659
     25 F          63.4586   84.6193    5.9132 F       1  UNL1       -0.1659
     26 F          60.5190   85.0468    6.3323 F       1  UNL1       -0.1659
     27 C          62.6208   83.7265   12.8774 C.ar    1  UNL1        0.0710
     28 C          62.4957   82.3924   12.2035 C.ar    1  UNL1        0.0180
     29 C          62.2626   81.1574   13.0223 C.ar    1  UNL1        0.0220
     30 C          62.1546   81.2565   14.5151 C.ar    1  UNL1        0.0990
     31 N          62.2798   82.5907   15.1891 N.ar    1  UNL1       -0.2410
     32 C          62.5129   83.8257   14.3703 C.ar    1  UNL1        0.1136
@<TRIPOS>BOND
     1     8     9    1
     2     9    10   ar
     3    10    11   ar
     4    11    14    1
     5    14    15    1
     6    15    16    1
     7    11    12   ar
     8    12    13   ar
     9    13     2    1
    10     2     3    1
    11     3     4    1
    12     4     5    1
    13     5     1    1
    14     1    17    1
    15    17    18   ar
    16    18    19   ar
    17    19    20   ar
    18    20    23    1
    19    23    24    1
    20    23    25    1
    21    23    26    1
    22    20    21   ar
    23    21    22   ar
    24     1    27    1
    25    27    28   ar
    26    28    29   ar
    27    29    30   ar
    28    30    31   ar
    29    31    32   ar
    30     5     6    1
    31     6     7    1
    32    13     9   ar
    33     7     2    1
    34    16    14    1
    35    22    17   ar
    36    32    27   ar
@<TRIPOS>MOLECULE
*****
 32 36 0 0 0
SMALL
GASTEIGER

@<TRIPOS>ATOM
      1 N          62.0660   87.3849   10.7443 N.pl3   1  UNL1       -0.2872
      2 N          64.6255   90.7317   12.3247 N.pl3   1  UNL1       -0.2933
      3 C          64.3242   89.5447   13.1909 C.3     1  UNL1        0.0939
      4 C          63.4710   88.4291   12.6641 C.3     1  UNL1        0.0416
      5 C          62.9192   88.5005   11.2711 C.3     1  UNL1        0.0807
      6 C          63.2205   89.6875   10.4049 C.3     1  UNL1        0.0416
      7 C          64.0737   90.8030   10.9317 C.3     1  UNL1        0.0939
      8 C          64.9537   93.6908   10.9885 C.3     1  UNL1        0.1551
      9 N          65.6295   93.2074   12.2373 N.ar    1  UNL1       -0.2360
     10 N          66.5749   93.9994   13.0912 N.ar    1  UNL1       -0.1725
     11 C          67.0084   93.1287   14.2331 C.ar    1  UNL1        0.0810
     12 C          66.3309   91.7986   14.0850 C.ar    1  UNL1        0.0504
     13 C          65.4787   91.8473   12.8515 C.ar    1  UNL1        0.1298
     14 C          67.9534   93.5194   15.3305 C.3     1  UNL1        0.0421
     15 C          68.8013   93.1441   16.5096 C.3     1  UNL1        0.0064
     16 C          68.7422   94.5714   16.0521 C.3     1  UNL1        0.0064
     17 C          62.2700   85.9850   11.2429 C.ar    1  UNL1        0.0515
     18 C          62.7265   84.9119   10.2995 C.ar    1  UNL1        0.0148
     19 C          62.9306   83.5119   10.7982 C.ar    1  UNL1        0.0051
     20 C          62.6781   83.1852   12.2402 C.ar    1  UNL1        0.0715
     21 C          62.2216   84.2583   13.1836 C.ar    1  UNL1        0.0051
     22 C          62.0175   85.6581   12.6850 C.ar    1  UNL1        0.0148
     23 C          62.8822   81.7853   12.7388 C.3     1  UNL1        0.4186
     24 F          63.0862   80.3853   13.2374 F       1  UNL1       -0.1659
     25 F          62.8327   81.2759   11.3288 F       1  UNL1       -0.1659
     26 F          62.9317   82.2947   14.1487 F       1  UNL1       -0.1659
     27 C          61.0087   87.6692    9.7189 C.ar    1  UNL1        0.0710
     28 C          60.3516   86.5377    8.9856 C.ar    1  UNL1        0.0180
     29 C          59.2943   86.8220    7.9602 C.ar    1  UNL1        0.0220
     30 C          58.8942   88.2378    7.6682 C.ar    1  UNL1        0.0990
     31 N          59.5514   89.3694    8.4015 N.ar    1  UNL1       -0.2410
     32 C          60.6087   89.0851    9.4269 C.ar    1  UNL1        0.1136
@<TRIPOS>BOND
     1     8     9    1
     2     9    10   ar
     3    10    11   ar
     4    11    14    1
     5    14    15    1
     6    15    16    1
     7    11    12   ar
     8    12    13   ar
     9    13     2    1
    10     2     3    1
    11     3     4    1
    12     4     5    1
    13     5     1    1
    14     1    17    1
    15    17    18   ar
    16    18    19   ar
    17    19    20   ar
    18    20    23    1
    19    23    24    1
    20    23    25    1
    21    23    26    1
    22    20    21   ar
    23    21    22   ar
    24     1    27    1
    25    27    28   ar
    26    28    29   ar
    27    29    30   ar
    28    30    31   ar
    29    31    32   ar
    30     5     6    1
    31     6     7    1
    32    13     9   ar
    33     7     2    1
    34    16    14    1
    35    22    17   ar
    36    32    27   ar
@<TRIPOS>MOLECULE
*****
 32 36 0 0 0
SMALL
GASTEIGER

@<TRIPOS>ATOM
      1 N          66.0704   93.3138   11.6808 N.pl3   1  UNL1       -0.2872
      2 N          62.7497   90.4007   10.8227 N.pl3   1  UNL1       -0.2933
      3 C          63.4347   90.3852   12.1570 C.3     1  UNL1        0.0939
      4 C          64.5416   91.3563   12.4430 C.3     1  UNL1        0.0416
      5 C          64.9635   92.3427   11.3947 C.3     1  UNL1        0.0807
      6 C          64.2784   92.3581   10.0604 C.3     1  UNL1        0.0416
      7 C          63.1715   91.3871    9.7744 C.3     1  UNL1        0.0939
      8 C          60.2177   89.7483   12.7756 C.3     1  UNL1        0.1551
      9 N          60.4790   89.1298   11.4343 N.ar    1  UNL1       -0.2360
     10 N          59.6222   88.1028   10.7551 N.ar    1  UNL1       -0.1725
     11 C          60.2565   87.7679    9.4376 C.ar    1  UNL1        0.0810
     12 C          61.5052   88.5879    9.3027 C.ar    1  UNL1        0.0504
     13 C          61.6427   89.4296   10.5366 C.ar    1  UNL1        0.1298
     14 C          59.7338   86.7855    8.4319 C.3     1  UNL1        0.0421
     15 C          58.5969   86.2356    7.6225 C.3     1  UNL1        0.0064
     16 C          59.9654   85.6338    7.4992 C.3     1  UNL1        0.0064
     17 C          66.9290   93.1351   12.8977 C.ar    1  UNL1        0.0515
     18 C          68.0697   92.1613   12.8744 C.ar    1  UNL1        0.0148
     19 C          68.9283   91.9827   14.0914 C.ar    1  UNL1        0.0051
     20 C          68.6461   92.7778   15.3316 C.ar    1  UNL1        0.0715
     21 C          67.5054   93.7516   15.3549 C.ar    1  UNL1        0.0051
     22 C          66.6468   93.9303   14.1380 C.ar    1  UNL1        0.0148
     23 C          69.5047   92.5992   16.5485 C.3     1  UNL1        0.4186
     24 F          70.3633   92.4206   17.7655 F       1  UNL1       -0.1659
     25 F          68.8245   91.2937   16.8368 F       1  UNL1       -0.1659
     26 F          70.1849   93.9046   16.2603 F       1  UNL1       -0.1659
     27 C          66.3188   94.4634   10.7499 C.ar    1  UNL1        0.0710
     28 C          67.4047   94.3728    9.7191 C.ar    1  UNL1        0.0180
     29 C          67.6530   95.5225    8.7882 C.ar    1  UNL1        0.0220
     30 C          66.8154   96.7628    8.8881 C.ar    1  UNL1        0.0990
     31 N          65.7295   96.8535    9.9189 N.ar    1  UNL1       -0.2410
     32 C          65.4811   95.7038   10.8498 C.ar    1  UNL1        0.1136
@<TRIPOS>BOND
     1     8     9    1
     2     9    10   ar
     3    10    11   ar
     4    11    14    1
     5    14    15    1
     6    15    16    1
     7    11    12   ar
     8    12    13   ar
     9    13     2    1
    10     2     3    1
    11     3     4    1
    12     4     5    1
    13     5     1    1
    14     1    17    1
    15    17    18   ar
    16    18    19   ar
    17    19    20   ar
    18    20    23    1
    19    23    24    1
    20    23    25    1
    21    23    26    1
    22    20    21   ar
    23    21    22   ar
    24     1    27    1
    25    27    28   ar
    26    28    29   ar
    27    29    30   ar
    28    30    31   ar
    29    31    32   ar
    30     5     6    1
    31     6     7    1
    32    13     9   ar
    33     7     2    1
    34    16    14    1
    35    22    17   ar
    36    32    27   ar
