@<TRIPOS>MOLECULE
*****
 35 39 0 0 0
SMALL
GASTEIGER

@<TRIPOS>ATOM
      1 C          64.1133   96.6370   -6.3143 C.2     1  UNL1        0.0036
      2 C          62.9109   96.2057   -7.1005 C.2     1  UNL1        0.0036
      3 C          61.5699   95.6104   -7.4121 C.3     1  UNL1        0.1686
      4 O          60.2519   94.9227   -7.2116 O.3     1  UNL1       -0.3442
      5 C          59.1161   94.2258   -6.5230 C.3     1  UNL1        0.1721
      6 C          58.2994   93.6035   -5.4295 C.ar    1  UNL1        0.0425
      7 C          57.9002   93.1310   -4.0630 C.ar    1  UNL1        0.0158
      8 C          57.9668   92.8653   -2.5882 C.ar    1  UNL1        0.0504
      9 C          56.6659   92.3590   -3.2425 C.ar    1  UNL1        0.0178
     10 C          56.1416   92.3859   -4.6477 C.ar    1  UNL1        0.0379
     11 C          56.9584   93.0081   -5.7411 C.ar    1  UNL1        0.1370
     12 N          58.4912   92.8385   -1.1830 N.pl3   1  UNL1       -0.2825
     13 C          59.7167   93.1775    0.1154 C.ar    1  UNL1        0.2207
     14 N          59.3176   92.7050    1.4819 N.ar    1  UNL1       -0.2120
     15 C          60.2364   92.9202    2.6478 C.ar    1  UNL1        0.1034
     16 C          61.5543   93.6079    2.4473 C.ar    1  UNL1        0.0400
     17 C          61.9534   94.0803    1.0808 C.ar    1  UNL1        0.0888
     18 N          61.0346   93.8651   -0.0852 N.ar    1  UNL1       -0.2134
     19 C          63.2713   94.7680    0.8802 C.ar    1  UNL1        0.0582
     20 C          64.4515   95.1796    1.7095 C.ar    1  UNL1        0.1806
     21 O          65.4429   95.8494    0.8048 O.2     1  UNL1       -0.4521
     22 C          65.2239   96.0872   -0.9018 C.ar    1  UNL1        0.1529
     23 C          64.4071   95.4649    0.1917 C.ar    1  UNL1        0.0402
     24 C          65.6231   96.5596   -2.2684 C.3     1  UNL1        0.2064
     25 O          65.5565   96.8253   -3.7432 O.3     1  UNL1       -0.3409
     26 C          65.0321   96.8522   -5.1483 C.3     1  UNL1        0.1687
     27 H          57.7702   92.3847   -0.6896 H       1  UNL1        0.1551
     28 O          56.4340   93.0350   -7.1463 O.3     1  UNL1       -0.4742
     29 C          55.4337   94.0759   -7.5538 C.3     1  UNL1        0.2226
     30 C          55.4695   95.4372   -6.9248 C.3     1  UNL1        0.1200
     31 N          54.5784   95.7482   -5.7588 N.3     1  UNL1       -0.2696
     32 C          53.1219   96.0991   -5.8312 C.3     1  UNL1        0.0722
     33 C          52.6309   96.3306   -4.4329 C.3     1  UNL1        0.0188
     34 C          53.7840   96.1228   -3.4963 C.3     1  UNL1        0.0188
     35 C          54.9877   95.7628   -4.3158 C.3     1  UNL1        0.0722
@<TRIPOS>BOND
     1     1     2    2
     2     2     3    1
     3     3     4    1
     4     4     5    1
     5     5     6    1
     6     6     7   ar
     7     7     8   ar
     8     8     9   ar
     9     9    10   ar
    10    10    11   ar
    11    11    28    1
    12    28    29    1
    13    29    30    1
    14    30    31    1
    15    31    32    1
    16    32    33    1
    17    33    34    1
    18    34    35    1
    19     8    12    1
    20    12    13    1
    21    13    14   ar
    22    14    15   ar
    23    15    16   ar
    24    16    17   ar
    25    17    18   ar
    26    17    19    1
    27    19    20   ar
    28    20    21   ar
    29    21    22   ar
    30    22    23   ar
    31    22    24    1
    32    24    25    1
    33    25    26    1
    34    26     1    1
    35    11     6   ar
    36    35    31    1
    37    18    13   ar
    38    23    19   ar
    39    12    27    1
@<TRIPOS>MOLECULE
*****
 35 39 0 0 0
SMALL
GASTEIGER

@<TRIPOS>ATOM
      1 C          56.1973   93.5181   -4.4226 C.2     1  UNL1        0.0036
      2 C          56.0467   93.0080   -3.0200 C.2     1  UNL1        0.0036
      3 C          56.3872   92.6704   -1.5988 C.3     1  UNL1        0.1686
      4 O          57.1778   92.5460   -0.3301 O.3     1  UNL1       -0.3442
      5 C          58.3232   92.6499    0.6328 C.3     1  UNL1        0.1721
      6 C          59.6852   92.9694    1.1739 C.ar    1  UNL1        0.0425
      7 C          61.0995   93.4661    1.2280 C.ar    1  UNL1        0.0158
      8 C          62.3956   94.0801    0.7884 C.ar    1  UNL1        0.0504
      9 C          62.4093   93.6086    2.2561 C.ar    1  UNL1        0.0178
     10 C          61.3877   92.9514    3.1364 C.ar    1  UNL1        0.0379
     11 C          60.0257   92.6318    2.5952 C.ar    1  UNL1        0.1370
     12 N          63.4172   94.7373   -0.0918 N.pl3   1  UNL1       -0.2825
     13 C          64.0179   95.4606   -1.6470 C.ar    1  UNL1        0.2207
     14 N          65.4323   95.9573   -1.5929 N.ar    1  UNL1       -0.2120
     15 C          66.0559   96.5784   -2.8075 C.ar    1  UNL1        0.1034
     16 C          65.2653   96.7028   -4.0761 C.ar    1  UNL1        0.0400
     17 C          63.8510   96.2061   -4.1302 C.ar    1  UNL1        0.0888
     18 N          63.2273   95.5850   -2.9156 N.ar    1  UNL1       -0.2134
     19 C          63.0603   96.3305   -5.3988 C.ar    1  UNL1        0.0582
     20 C          63.2601   96.8548   -6.7899 C.ar    1  UNL1        0.1806
     21 O          61.9870   96.6398   -7.5536 O.2     1  UNL1       -0.4521
     22 C          60.5529   95.9071   -6.9029 C.ar    1  UNL1        0.1529
     23 C          61.9150   96.2267   -6.3617 C.ar    1  UNL1        0.0402
     24 C          59.1386   95.4104   -6.9569 C.3     1  UNL1        0.2064
     25 O          57.8425   94.7964   -6.5173 O.3     1  UNL1       -0.3409
     26 C          56.8210   94.1392   -5.6371 C.3     1  UNL1        0.1687
     27 H          64.1949   94.8263    0.5052 H       1  UNL1        0.1551
     28 O          59.0042   91.9746    3.4754 O.3     1  UNL1       -0.4742
     29 C          59.3851   91.5131    4.8509 C.3     1  UNL1        0.2226
     30 C          58.5164   90.5311    5.5797 C.3     1  UNL1        0.1200
     31 N          59.0949   89.6890    6.6780 N.3     1  UNL1       -0.2696
     32 C          60.1724   90.1061    7.6345 C.3     1  UNL1        0.0722
     33 C          60.4408   88.9568    8.5602 C.3     1  UNL1        0.0188
     34 C          59.5292   87.8292    8.1758 C.3     1  UNL1        0.0188
     35 C          58.6974   88.2818    7.0125 C.3     1  UNL1        0.0722
@<TRIPOS>BOND
     1     1     2    2
     2     2     3    1
     3     3     4    1
     4     4     5    1
     5     5     6    1
     6     6     7   ar
     7     7     8   ar
     8     8     9   ar
     9     9    10   ar
    10    10    11   ar
    11    11    28    1
    12    28    29    1
    13    29    30    1
    14    30    31    1
    15    31    32    1
    16    32    33    1
    17    33    34    1
    18    34    35    1
    19     8    12    1
    20    12    13    1
    21    13    14   ar
    22    14    15   ar
    23    15    16   ar
    24    16    17   ar
    25    17    18   ar
    26    17    19    1
    27    19    20   ar
    28    20    21   ar
    29    21    22   ar
    30    22    23   ar
    31    22    24    1
    32    24    25    1
    33    25    26    1
    34    26     1    1
    35    11     6   ar
    36    35    31    1
    37    18    13   ar
    38    23    19   ar
    39    12    27    1
@<TRIPOS>MOLECULE
*****
 35 39 0 0 0
SMALL
GASTEIGER

@<TRIPOS>ATOM
      1 C          64.3839   96.7419   -5.2080 C.2     1  UNL1        0.0036
      2 C          63.1184   96.8170   -6.0099 C.2     1  UNL1        0.0036
      3 C          61.6678   96.6889   -6.3692 C.3     1  UNL1        0.1686
      4 O          60.2069   96.3731   -6.2428 O.3     1  UNL1       -0.3442
      5 C          58.9120   95.9076   -5.6458 C.3     1  UNL1        0.1721
      6 C          57.9392   95.3485   -4.6502 C.ar    1  UNL1        0.0425
      7 C          57.4059   94.7634   -3.3762 C.ar    1  UNL1        0.0158
      8 C          57.3763   94.2228   -1.9773 C.ar    1  UNL1        0.0504
      9 C          55.9936   94.2305   -2.6590 C.ar    1  UNL1        0.0178
     10 C          55.5157   94.6614   -4.0141 C.ar    1  UNL1        0.0379
     11 C          56.4885   95.2204   -5.0096 C.ar    1  UNL1        0.1370
     12 N          57.8543   93.7919   -0.6223 N.pl3   1  UNL1       -0.2825
     13 C          59.1095   93.5290    0.6654 C.ar    1  UNL1        0.2207
     14 N          58.5762   92.9439    1.9394 N.ar    1  UNL1       -0.2120
     15 C          59.5038   92.6747    3.0870 C.ar    1  UNL1        0.1034
     16 C          60.9647   92.9905    2.9606 C.ar    1  UNL1        0.0400
     17 C          61.4980   93.5756    1.6866 C.ar    1  UNL1        0.0888
     18 N          60.5704   93.8449    0.5390 N.ar    1  UNL1       -0.2134
     19 C          62.9589   93.8915    1.5601 C.ar    1  UNL1        0.0582
     20 C          64.1969   93.7961    2.4017 C.ar    1  UNL1        0.1806
     21 O          65.3483   94.3163    1.5931 O.2     1  UNL1       -0.4521
     22 C          65.2266   94.9160   -0.0325 C.ar    1  UNL1        0.1529
     23 C          64.2538   94.3570    0.9631 C.ar    1  UNL1        0.0402
     24 C          65.7599   95.5011   -1.3065 C.3     1  UNL1        0.2064
     25 O          65.7894   96.0417   -2.7055 O.3     1  UNL1       -0.3409
     26 C          65.3115   96.4727   -4.0604 C.3     1  UNL1        0.1687
     27 H          57.0284   93.4753   -0.1900 H       1  UNL1        0.1551
     28 O          56.0106   95.6514   -6.3646 O.3     1  UNL1       -0.4742
     29 C          56.2549   94.7774   -7.5590 C.3     1  UNL1        0.2226
     30 C          55.7812   93.3542   -7.5562 C.3     1  UNL1        0.1200
     31 N          56.1549   92.4416   -6.4259 N.3     1  UNL1       -0.2696
     32 C          55.2247   91.5243   -5.6889 C.3     1  UNL1        0.0722
     33 C          56.0194   90.8020   -4.6417 C.3     1  UNL1        0.0188
     34 C          57.4408   91.2728   -4.7315 C.3     1  UNL1        0.0188
     35 C          57.5245   92.2862   -5.8343 C.3     1  UNL1        0.0722
@<TRIPOS>BOND
     1     1     2    2
     2     2     3    1
     3     3     4    1
     4     4     5    1
     5     5     6    1
     6     6     7   ar
     7     7     8   ar
     8     8     9   ar
     9     9    10   ar
    10    10    11   ar
    11    11    28    1
    12    28    29    1
    13    29    30    1
    14    30    31    1
    15    31    32    1
    16    32    33    1
    17    33    34    1
    18    34    35    1
    19     8    12    1
    20    12    13    1
    21    13    14   ar
    22    14    15   ar
    23    15    16   ar
    24    16    17   ar
    25    17    18   ar
    26    17    19    1
    27    19    20   ar
    28    20    21   ar
    29    21    22   ar
    30    22    23   ar
    31    22    24    1
    32    24    25    1
    33    25    26    1
    34    26     1    1
    35    11     6   ar
    36    35    31    1
    37    18    13   ar
    38    23    19   ar
    39    12    27    1
