@<TRIPOS>MOLECULE
*****
 39 42 0 0 0
SMALL
GASTEIGER

@<TRIPOS>ATOM
      1 C          61.5455   89.4776   11.7683 C.3     1  UNL1        0.1323
      2 C          62.7289   90.3181   12.1469 C.ar    1  UNL1        0.1409
      3 N          63.4328   91.1351   11.1043 N.ar    1  UNL1       -0.2305
      4 C          64.6162   91.9756   11.4829 C.ar    1  UNL1        0.0881
      5 C          65.3202   92.7926   10.4404 C.ar    1  UNL1        0.0307
      6 C          66.5035   93.6330   10.8190 C.ar    1  UNL1        0.0592
      7 CL         67.2075   94.4500    9.7764 Cl      1  UNL1       -0.0822
      8 C          66.9828   93.6565   12.2402 C.ar    1  UNL1        0.0116
      9 C          66.2788   92.8395   13.2827 C.ar    1  UNL1        0.0071
     10 C          65.0955   91.9991   12.9041 C.ar    1  UNL1        0.0739
     11 C          64.3915   91.1821   13.9467 C.ar    1  UNL1        0.2634
     12 O          64.8708   91.2055   15.3678 O.2     1  UNL1       -0.2669
     13 N          63.2082   90.3416   13.5680 N.ar    1  UNL1       -0.2785
     14 C          62.5041   89.5246   14.6106 C.3     1  UNL1        0.1369
     15 C          63.1214   88.2515   15.1088 C.ar    1  UNL1        0.0005
     16 C          64.1508   87.5424   14.2795 C.ar    1  UNL1       -0.0024
     17 C          64.7680   86.2693   14.7777 C.ar    1  UNL1       -0.0003
     18 C          64.3558   85.7052   16.1052 C.ar    1  UNL1       -0.0000
     19 C          63.3265   86.4143   16.9343 C.ar    1  UNL1       -0.0003
     20 C          62.7092   87.6874   16.4362 C.ar    1  UNL1       -0.0024
     21 C          61.1031   88.2804    9.5053 C.2     1  UNL1        0.2493
     22 O          60.3003   89.4585    9.0390 O.2     1  UNL1       -0.2699
     23 N          61.7257   88.2900   10.8700 N.am    1  UNL1       -0.2708
     24 C          61.8242   83.5298    5.9120 C.3     1  UNL1        0.0310
     25 C          61.6439   84.7175    6.8103 C.ar    1  UNL1       -0.0218
     26 C          62.7976   85.2243    7.6242 C.ar    1  UNL1       -0.0041
     27 C          62.6174   86.4119    8.5225 C.ar    1  UNL1        0.0042
     28 C          61.2834   87.0928    8.6070 C.ar    1  UNL1        0.0536
     29 C          60.1298   86.5860    7.7932 C.ar    1  UNL1        0.0042
     30 C          60.3101   85.3983    6.8949 C.ar    1  UNL1       -0.0041
     31 C          62.5286   87.1119   11.3363 C.3     1  UNL1        0.0955
     32 C          61.8328   85.8780   11.8296 C.3     1  UNL1        0.0383
     33 C          62.5735   84.5754   11.8969 C.3     1  UNL1        0.0669
     34 N          62.6266   83.8085   13.1849 N.3     1  UNL1       -0.3211
     35 H          63.1547   84.3411   13.8762 H       1  UNL1        0.1189
     36 H          63.0827   82.9100   13.0271 H       1  UNL1        0.1189
     37 C          60.1819   89.8248   12.2880 C.3     1  UNL1        0.0255
     38 C          59.5736   89.0172   13.3960 C.3     1  UNL1        0.0022
     39 C          59.4267   90.9796   11.6997 C.3     1  UNL1        0.0022
@<TRIPOS>BOND
     1    24    25    1
     2    25    26   ar
     3    26    27   ar
     4    27    28   ar
     5    28    21    1
     6    21    22    2
     7    21    23   am
     8    23    31    1
     9    31    32    1
    10    32    33    1
    11    33    34    1
    12    23     1    1
    13     1     2    1
    14     2     3   ar
    15     3     4   ar
    16     4     5   ar
    17     5     6   ar
    18     6     7    1
    19     6     8   ar
    20     8     9   ar
    21     9    10   ar
    22    10    11   ar
    23    11    12    2
    24    11    13   ar
    25    13    14    1
    26    14    15    1
    27    15    16   ar
    28    16    17   ar
    29    17    18   ar
    30    18    19   ar
    31    19    20   ar
    32     1    37    1
    33    37    38    1
    34    37    39    1
    35    28    29   ar
    36    29    30   ar
    37    30    25   ar
    38    13     2   ar
    39    20    15   ar
    40    10     4   ar
    41    34    35    1
    42    34    36    1
@<TRIPOS>MOLECULE
*****
 39 42 0 0 0
SMALL
GASTEIGER

@<TRIPOS>ATOM
      1 C          62.0639   88.8539   12.2136 C.3     1  UNL1        0.1323
      2 C          62.3983   87.4563   11.7835 C.ar    1  UNL1        0.1409
      3 N          62.6858   86.4035   12.8124 N.ar    1  UNL1       -0.2305
      4 C          63.0203   85.0059   12.3823 C.ar    1  UNL1        0.0881
      5 C          63.3078   83.9530   13.4112 C.ar    1  UNL1        0.0307
      6 C          63.6422   82.5555   12.9810 C.ar    1  UNL1        0.0592
      7 CL         63.9298   81.5026   14.0100 Cl      1  UNL1       -0.0822
      8 C          63.6891   82.2109   11.5219 C.ar    1  UNL1        0.0116
      9 C          63.4016   83.2637   10.4930 C.ar    1  UNL1        0.0071
     10 C          63.0671   84.6612   10.9231 C.ar    1  UNL1        0.0739
     11 C          62.7796   85.7142    9.8942 C.ar    1  UNL1        0.2634
     12 O          62.8264   85.3695    8.4351 O.2     1  UNL1       -0.2669
     13 N          62.4452   87.1117   10.3244 N.ar    1  UNL1       -0.2785
     14 C          62.1576   88.1646    9.2954 C.3     1  UNL1        0.1369
     15 C          60.8591   88.1449    8.5447 C.ar    1  UNL1        0.0005
     16 C          60.0270   86.8970    8.5183 C.ar    1  UNL1       -0.0024
     17 C          58.7285   86.8773    7.7676 C.ar    1  UNL1       -0.0003
     18 C          58.2621   88.1053    7.0433 C.ar    1  UNL1       -0.0000
     19 C          59.0942   89.3530    7.0697 C.ar    1  UNL1       -0.0003
     20 C          60.3927   89.3728    7.8204 C.ar    1  UNL1       -0.0024
     21 C          63.9721   90.6163   12.2696 C.2     1  UNL1        0.2493
     22 O          63.8781   90.7653   10.7800 O.2     1  UNL1       -0.2699
     23 N          63.0649   89.6606   12.9864 N.am    1  UNL1       -0.2708
     24 C          67.9763   93.8428   15.3608 C.3     1  UNL1        0.0310
     25 C          66.9752   93.0362   14.5880 C.ar    1  UNL1       -0.0218
     26 C          66.4335   93.5574   13.2899 C.ar    1  UNL1       -0.0041
     27 C          65.4324   92.7508   12.5171 C.ar    1  UNL1        0.0042
     28 C          64.9731   91.4229   13.0424 C.ar    1  UNL1        0.0536
     29 C          65.5149   90.9017   14.3404 C.ar    1  UNL1        0.0042
     30 C          66.5159   91.7084   15.1132 C.ar    1  UNL1       -0.0041
     31 C          63.1588   89.5116   14.4760 C.3     1  UNL1        0.0955
     32 C          63.9875   88.4107   15.0689 C.3     1  UNL1        0.0383
     33 C          63.4863   87.6550   16.2637 C.3     1  UNL1        0.0669
     34 N          63.1121   86.2083   16.1332 N.3     1  UNL1       -0.3211
     35 H          62.2996   86.1209   15.5229 H       1  UNL1        0.1189
     36 H          62.8879   85.8307   17.0539 H       1  UNL1        0.1189
     37 C          60.7284   89.4448   11.8710 C.3     1  UNL1        0.0255
     38 C          59.4738   88.6663   12.1352 C.3     1  UNL1        0.0022
     39 C          60.6476   90.8142   11.2641 C.3     1  UNL1        0.0022
@<TRIPOS>BOND
     1    24    25    1
     2    25    26   ar
     3    26    27   ar
     4    27    28   ar
     5    28    21    1
     6    21    22    2
     7    21    23   am
     8    23    31    1
     9    31    32    1
    10    32    33    1
    11    33    34    1
    12    23     1    1
    13     1     2    1
    14     2     3   ar
    15     3     4   ar
    16     4     5   ar
    17     5     6   ar
    18     6     7    1
    19     6     8   ar
    20     8     9   ar
    21     9    10   ar
    22    10    11   ar
    23    11    12    2
    24    11    13   ar
    25    13    14    1
    26    14    15    1
    27    15    16   ar
    28    16    17   ar
    29    17    18   ar
    30    18    19   ar
    31    19    20   ar
    32     1    37    1
    33    37    38    1
    34    37    39    1
    35    28    29   ar
    36    29    30   ar
    37    30    25   ar
    38    13     2   ar
    39    20    15   ar
    40    10     4   ar
    41    34    35    1
    42    34    36    1
@<TRIPOS>MOLECULE
*****
 39 42 0 0 0
SMALL
GASTEIGER

@<TRIPOS>ATOM
      1 C          62.2566   89.0203   12.1553 C.3     1  UNL1        0.1323
      2 C          62.4936   87.5725   11.8428 C.ar    1  UNL1        0.1409
      3 N          62.7595   86.5994   12.9529 N.ar    1  UNL1       -0.2305
      4 C          62.9965   85.1515   12.6404 C.ar    1  UNL1        0.0881
      5 C          63.2623   84.1784   13.7504 C.ar    1  UNL1        0.0307
      6 C          63.4993   82.7306   13.4379 C.ar    1  UNL1        0.0592
      7 CL         63.7652   81.7574   14.5480 Cl      1  UNL1       -0.0822
      8 C          63.4704   82.2559   12.0153 C.ar    1  UNL1        0.0116
      9 C          63.2045   83.2290   10.9052 C.ar    1  UNL1        0.0071
     10 C          62.9676   84.6768   11.2177 C.ar    1  UNL1        0.0739
     11 C          62.7017   85.6500   10.1076 C.ar    1  UNL1        0.2634
     12 O          62.6728   85.1753    8.6850 O.2     1  UNL1       -0.2669
     13 N          62.4647   87.0978   10.4202 N.ar    1  UNL1       -0.2785
     14 C          62.1988   88.0710    9.3100 C.3     1  UNL1        0.1369
     15 C          60.8882   88.0376    8.5813 C.ar    1  UNL1        0.0005
     16 C          60.0610   86.7862    8.5826 C.ar    1  UNL1       -0.0024
     17 C          58.7503   86.7529    7.8538 C.ar    1  UNL1       -0.0003
     18 C          58.2669   87.9708    7.1238 C.ar    1  UNL1       -0.0000
     19 C          59.0941   89.2221    7.1225 C.ar    1  UNL1       -0.0003
     20 C          60.4047   89.2555    7.8513 C.ar    1  UNL1       -0.0024
     21 C          63.5775   90.0711   14.1305 C.2     1  UNL1        0.2493
     22 O          62.6437   89.4150   15.1039 O.2     1  UNL1       -0.2699
     23 N          63.3839   89.8738   12.6561 N.am    1  UNL1       -0.2708
     24 C          68.0867   93.4848   16.1339 C.3     1  UNL1        0.0310
     25 C          66.9594   92.6313   15.6330 C.ar    1  UNL1       -0.0218
     26 C          67.1562   91.7607   14.4274 C.ar    1  UNL1       -0.0041
     27 C          66.0289   90.9073   13.9266 C.ar    1  UNL1        0.0042
     28 C          64.7048   90.9245   14.6313 C.ar    1  UNL1        0.0536
     29 C          64.5081   91.7951   15.8369 C.ar    1  UNL1        0.0042
     30 C          65.6354   92.6485   16.3377 C.ar    1  UNL1       -0.0041
     31 C          64.3177   90.5299   11.6827 C.3     1  UNL1        0.0955
     32 C          64.0652   91.9389   11.2346 C.3     1  UNL1        0.0383
     33 C          65.2126   92.8100   10.8167 C.3     1  UNL1        0.0669
     34 N          65.6490   93.9468   11.6926 N.3     1  UNL1       -0.3211
     35 H          64.9090   94.6476   11.7341 H       1  UNL1        0.1189
     36 H          66.4946   94.3676   11.3075 H       1  UNL1        0.1189
     37 C          60.8924   89.6147   11.9669 C.3     1  UNL1        0.0255
     38 C          59.7091   89.0127   12.6652 C.3     1  UNL1        0.0022
     39 C          60.7114   90.8111   11.0804 C.3     1  UNL1        0.0022
@<TRIPOS>BOND
     1    24    25    1
     2    25    26   ar
     3    26    27   ar
     4    27    28   ar
     5    28    21    1
     6    21    22    2
     7    21    23   am
     8    23    31    1
     9    31    32    1
    10    32    33    1
    11    33    34    1
    12    23     1    1
    13     1     2    1
    14     2     3   ar
    15     3     4   ar
    16     4     5   ar
    17     5     6   ar
    18     6     7    1
    19     6     8   ar
    20     8     9   ar
    21     9    10   ar
    22    10    11   ar
    23    11    12    2
    24    11    13   ar
    25    13    14    1
    26    14    15    1
    27    15    16   ar
    28    16    17   ar
    29    17    18   ar
    30    18    19   ar
    31    19    20   ar
    32     1    37    1
    33    37    38    1
    34    37    39    1
    35    28    29   ar
    36    29    30   ar
    37    30    25   ar
    38    13     2   ar
    39    20    15   ar
    40    10     4   ar
    41    34    35    1
    42    34    36    1
@<TRIPOS>MOLECULE
*****
 39 42 0 0 0
SMALL
GASTEIGER

@<TRIPOS>ATOM
      1 C          61.2721   89.8216   11.2716 C.3     1  UNL1        0.1323
      2 C          62.5249   90.5192   11.7120 C.ar    1  UNL1        0.1409
      3 N          63.2841   91.3789   10.7452 N.ar    1  UNL1       -0.2305
      4 C          64.5369   92.0765   11.1856 C.ar    1  UNL1        0.0881
      5 C          65.2960   92.9362   10.2188 C.ar    1  UNL1        0.0307
      6 C          66.5487   93.6337   10.6592 C.ar    1  UNL1        0.0592
      7 CL         67.3080   94.4934    9.6924 Cl      1  UNL1       -0.0822
      8 C          67.0423   93.4717   12.0664 C.ar    1  UNL1        0.0116
      9 C          66.2832   92.6121   13.0331 C.ar    1  UNL1        0.0071
     10 C          65.0305   91.9145   12.5928 C.ar    1  UNL1        0.0739
     11 C          64.2712   91.0548   13.5595 C.ar    1  UNL1        0.2634
     12 O          64.7648   90.8928   14.9667 O.2     1  UNL1       -0.2669
     13 N          63.0185   90.3572   13.1192 N.ar    1  UNL1       -0.2785
     14 C          62.2593   89.4975   14.0859 C.3     1  UNL1        0.1369
     15 C          62.9461   88.3542   14.7723 C.ar    1  UNL1        0.0005
     16 C          62.6712   88.0742   16.2201 C.ar    1  UNL1       -0.0024
     17 C          63.3581   86.9309   16.9065 C.ar    1  UNL1       -0.0003
     18 C          64.3198   86.0676   16.1450 C.ar    1  UNL1       -0.0000
     19 C          64.5947   86.3476   14.6973 C.ar    1  UNL1       -0.0003
     20 C          63.9079   87.4909   14.0109 C.ar    1  UNL1       -0.0024
     21 C          61.6038   87.4465   10.2722 C.2     1  UNL1        0.2493
     22 O          61.8755   86.9067   11.6450 O.2     1  UNL1       -0.2699
     23 N          61.3021   88.9039   10.0854 N.am    1  UNL1       -0.2708
     24 C          61.7237   83.7759    5.5274 C.3     1  UNL1        0.0310
     25 C          61.6937   84.6935    6.7136 C.ar    1  UNL1       -0.0218
     26 C          62.9559   84.9809    7.4716 C.ar    1  UNL1       -0.0041
     27 C          62.9259   85.8985    8.6578 C.ar    1  UNL1        0.0042
     28 C          61.6338   86.5288    9.0860 C.ar    1  UNL1        0.0536
     29 C          60.3717   86.2414    8.3280 C.ar    1  UNL1        0.0042
     30 C          60.4017   85.3238    7.1418 C.ar    1  UNL1       -0.0041
     31 C          61.0304   89.4437    8.7126 C.3     1  UNL1        0.0955
     32 C          59.6347   89.4286    8.1634 C.3     1  UNL1        0.0383
     33 C          59.4125   89.4019    6.6802 C.3     1  UNL1        0.0669
     34 N          59.4436   90.6790    5.8941 N.3     1  UNL1       -0.3211
     35 H          58.6600   91.2694    6.1734 H       1  UNL1        0.1189
     36 H          59.3720   90.4675    4.8988 H       1  UNL1        0.1189
     37 C          59.9894   90.0416   12.0174 C.3     1  UNL1        0.0255
     38 C          59.5508   89.0580   13.0615 C.3     1  UNL1        0.0022
     39 C          59.1454   91.2452   11.7191 C.3     1  UNL1        0.0022
@<TRIPOS>BOND
     1    24    25    1
     2    25    26   ar
     3    26    27   ar
     4    27    28   ar
     5    28    21    1
     6    21    22    2
     7    21    23   am
     8    23    31    1
     9    31    32    1
    10    32    33    1
    11    33    34    1
    12    23     1    1
    13     1     2    1
    14     2     3   ar
    15     3     4   ar
    16     4     5   ar
    17     5     6   ar
    18     6     7    1
    19     6     8   ar
    20     8     9   ar
    21     9    10   ar
    22    10    11   ar
    23    11    12    2
    24    11    13   ar
    25    13    14    1
    26    14    15    1
    27    15    16   ar
    28    16    17   ar
    29    17    18   ar
    30    18    19   ar
    31    19    20   ar
    32     1    37    1
    33    37    38    1
    34    37    39    1
    35    28    29   ar
    36    29    30   ar
    37    30    25   ar
    38    13     2   ar
    39    20    15   ar
    40    10     4   ar
    41    34    35    1
    42    34    36    1
@<TRIPOS>MOLECULE
*****
 39 42 0 0 0
SMALL
GASTEIGER

@<TRIPOS>ATOM
      1 C          64.5211   91.2037   13.4057 C.3     1  UNL1        0.1323
      2 C          63.7065   90.1983   12.6469 C.ar    1  UNL1        0.1409
      3 N          62.8338   90.6435   11.5111 N.ar    1  UNL1       -0.2305
      4 C          62.0193   89.6381   10.7523 C.ar    1  UNL1        0.0881
      5 C          61.1466   90.0833    9.6165 C.ar    1  UNL1        0.0307
      6 C          60.3321   89.0779    8.8578 C.ar    1  UNL1        0.0592
      7 CL         59.4594   89.5231    7.7219 Cl      1  UNL1       -0.0822
      8 C          60.3903   87.6272    9.2349 C.ar    1  UNL1        0.0116
      9 C          61.2630   87.1820   10.3707 C.ar    1  UNL1        0.0071
     10 C          62.0775   88.1874   11.1294 C.ar    1  UNL1        0.0739
     11 C          62.9502   87.7422   12.2653 C.ar    1  UNL1        0.2634
     12 O          63.0084   86.2916   12.6424 O.2     1  UNL1       -0.2669
     13 N          63.7647   88.7476   13.0240 N.ar    1  UNL1       -0.2785
     14 C          64.6375   88.3024   14.1599 C.3     1  UNL1        0.1369
     15 C          64.0456   87.5332   15.3036 C.ar    1  UNL1        0.0005
     16 C          64.2090   86.0436   15.3698 C.ar    1  UNL1       -0.0024
     17 C          63.6171   85.2743   16.5135 C.ar    1  UNL1       -0.0003
     18 C          62.8619   85.9948   17.5909 C.ar    1  UNL1       -0.0000
     19 C          62.6986   87.4843   17.5246 C.ar    1  UNL1       -0.0003
     20 C          63.2904   88.2536   16.3809 C.ar    1  UNL1       -0.0024
     21 C          65.1606   92.3709   11.1743 C.2     1  UNL1        0.2493
     22 O          64.3900   91.3346   10.4114 O.2     1  UNL1       -0.2699
     23 N          65.2262   92.3055   12.6715 N.am    1  UNL1       -0.2708
     24 C          67.9809   96.7779    8.2376 C.3     1  UNL1        0.0310
     25 C          67.2758   95.6761    8.9718 C.ar    1  UNL1       -0.0218
     26 C          66.0132   95.9668    9.7277 C.ar    1  UNL1       -0.0041
     27 C          65.3081   94.8651   10.4619 C.ar    1  UNL1        0.0042
     28 C          65.8657   93.4726   10.4401 C.ar    1  UNL1        0.0536
     29 C          67.1282   93.1820    9.6842 C.ar    1  UNL1        0.0042
     30 C          67.8333   94.2838    8.9500 C.ar    1  UNL1       -0.0041
     31 C          65.9968   93.3418   13.4344 C.3     1  UNL1        0.0955
     32 C          67.4311   93.0941   13.7967 C.3     1  UNL1        0.0383
     33 C          68.1627   91.9252   13.2064 C.3     1  UNL1        0.0669
     34 N          69.6609   91.8741   13.2584 N.3     1  UNL1       -0.3211
     35 H          70.0468   92.6242   12.6849 H       1  UNL1        0.1189
     36 H          69.9830   90.9741   12.9026 H       1  UNL1        0.1189
     37 C          64.6305   91.1074   14.8985 C.3     1  UNL1        0.0255
     38 C          65.9540   90.8029   15.5354 C.3     1  UNL1        0.0022
     39 C          63.4165   91.3156   15.7545 C.3     1  UNL1        0.0022
@<TRIPOS>BOND
     1    24    25    1
     2    25    26   ar
     3    26    27   ar
     4    27    28   ar
     5    28    21    1
     6    21    22    2
     7    21    23   am
     8    23    31    1
     9    31    32    1
    10    32    33    1
    11    33    34    1
    12    23     1    1
    13     1     2    1
    14     2     3   ar
    15     3     4   ar
    16     4     5   ar
    17     5     6   ar
    18     6     7    1
    19     6     8   ar
    20     8     9   ar
    21     9    10   ar
    22    10    11   ar
    23    11    12    2
    24    11    13   ar
    25    13    14    1
    26    14    15    1
    27    15    16   ar
    28    16    17   ar
    29    17    18   ar
    30    18    19   ar
    31    19    20   ar
    32     1    37    1
    33    37    38    1
    34    37    39    1
    35    28    29   ar
    36    29    30   ar
    37    30    25   ar
    38    13     2   ar
    39    20    15   ar
    40    10     4   ar
    41    34    35    1
    42    34    36    1
@<TRIPOS>MOLECULE
*****
 39 42 0 0 0
SMALL
GASTEIGER

@<TRIPOS>ATOM
      1 C          64.5216   91.1980   13.3940 C.3     1  UNL1        0.1323
      2 C          63.7017   90.1952   12.6376 C.ar    1  UNL1        0.1409
      3 N          62.8260   90.6434   11.5053 N.ar    1  UNL1       -0.2305
      4 C          62.0061   89.6405   10.7489 C.ar    1  UNL1        0.0881
      5 C          61.1303   90.0887    9.6166 C.ar    1  UNL1        0.0307
      6 C          60.3105   89.0858    8.8603 C.ar    1  UNL1        0.0592
      7 CL         59.4347   89.5340    7.7279 Cl      1  UNL1       -0.0822
      8 C          60.3664   87.6348    9.2362 C.ar    1  UNL1        0.0116
      9 C          61.2421   87.1866   10.3685 C.ar    1  UNL1        0.0071
     10 C          62.0620   88.1894   11.1249 C.ar    1  UNL1        0.0739
     11 C          62.9378   87.7413   12.2573 C.ar    1  UNL1        0.2634
     12 O          62.9937   86.2902   12.6332 O.2     1  UNL1       -0.2669
     13 N          63.7576   88.7441   13.0136 N.ar    1  UNL1       -0.2785
     14 C          64.6334   88.2959   14.1460 C.3     1  UNL1        0.1369
     15 C          64.0422   87.5353   15.2957 C.ar    1  UNL1        0.0005
     16 C          63.2850   88.2635   16.3665 C.ar    1  UNL1       -0.0024
     17 C          62.6937   87.5028   17.5163 C.ar    1  UNL1       -0.0003
     18 C          62.8597   86.0141   17.5952 C.ar    1  UNL1       -0.0000
     19 C          63.6168   85.2860   16.5244 C.ar    1  UNL1       -0.0003
     20 C          64.2081   86.0466   15.3746 C.ar    1  UNL1       -0.0024
     21 C          65.1536   92.3668   11.1614 C.2     1  UNL1        0.2493
     22 O          64.3800   91.3313   10.4003 O.2     1  UNL1       -0.2699
     23 N          65.2244   92.3002   12.6583 N.am    1  UNL1       -0.2708
     24 C          67.9648   96.7753    8.2183 C.3     1  UNL1        0.0310
     25 C          67.2620   95.6732    8.9541 C.ar    1  UNL1       -0.0218
     26 C          67.8352   94.2869    8.9541 C.ar    1  UNL1       -0.0041
     27 C          67.1324   93.1848    9.6899 C.ar    1  UNL1        0.0042
     28 C          65.8564   93.4689   10.4256 C.ar    1  UNL1        0.0536
     29 C          65.2833   94.8551   10.4256 C.ar    1  UNL1        0.0042
     30 C          65.9861   95.9572    9.6898 C.ar    1  UNL1       -0.0041
     31 C          65.9980   93.3357   13.4193 C.3     1  UNL1        0.0955
     32 C          67.4190   93.0675   13.8179 C.3     1  UNL1        0.0383
     33 C          68.1807   91.9484   13.1719 C.3     1  UNL1        0.0669
     34 N          69.6748   91.8908   13.2919 N.3     1  UNL1       -0.3211
     35 H          70.0862   92.6837   12.7995 H       1  UNL1        0.1189
     36 H          70.0156   91.0216   12.8812 H       1  UNL1        0.1189
     37 C          64.6387   91.0987   14.8861 C.3     1  UNL1        0.0255
     38 C          65.9581   90.7599   15.5140 C.3     1  UNL1        0.0022
     39 C          63.4363   91.3383   15.7504 C.3     1  UNL1        0.0022
@<TRIPOS>BOND
     1    24    25    1
     2    25    26   ar
     3    26    27   ar
     4    27    28   ar
     5    28    21    1
     6    21    22    2
     7    21    23   am
     8    23    31    1
     9    31    32    1
    10    32    33    1
    11    33    34    1
    12    23     1    1
    13     1     2    1
    14     2     3   ar
    15     3     4   ar
    16     4     5   ar
    17     5     6   ar
    18     6     7    1
    19     6     8   ar
    20     8     9   ar
    21     9    10   ar
    22    10    11   ar
    23    11    12    2
    24    11    13   ar
    25    13    14    1
    26    14    15    1
    27    15    16   ar
    28    16    17   ar
    29    17    18   ar
    30    18    19   ar
    31    19    20   ar
    32     1    37    1
    33    37    38    1
    34    37    39    1
    35    28    29   ar
    36    29    30   ar
    37    30    25   ar
    38    13     2   ar
    39    20    15   ar
    40    10     4   ar
    41    34    35    1
    42    34    36    1
@<TRIPOS>MOLECULE
*****
 39 42 0 0 0
SMALL
GASTEIGER

@<TRIPOS>ATOM
      1 C          63.6581   85.2673   13.2570 C.3     1  UNL1        0.1323
      2 C          63.0726   86.4318   12.5145 C.ar    1  UNL1        0.1409
      3 N          62.0687   86.1983   11.4247 N.ar    1  UNL1       -0.2305
      4 C          61.4832   87.3628   10.6823 C.ar    1  UNL1        0.0881
      5 C          60.4794   87.1294    9.5925 C.ar    1  UNL1        0.0307
      6 C          59.8939   88.2938    8.8501 C.ar    1  UNL1        0.0592
      7 CL         58.8900   88.0604    7.7602 Cl      1  UNL1       -0.0822
      8 C          60.3123   89.6918    9.1975 C.ar    1  UNL1        0.0116
      9 C          61.3161   89.9253   10.2873 C.ar    1  UNL1        0.0071
     10 C          61.9016   88.7608   11.0297 C.ar    1  UNL1        0.0739
     11 C          62.9055   88.9942   12.1195 C.ar    1  UNL1        0.2634
     12 O          63.3239   90.3922   12.4669 O.2     1  UNL1       -0.2669
     13 N          63.4910   87.8298   12.8619 N.ar    1  UNL1       -0.2785
     14 C          64.4949   88.0632   13.9518 C.3     1  UNL1        0.1369
     15 C          64.4427   89.3245   14.7620 C.ar    1  UNL1        0.0005
     16 C          63.4284   89.4708   15.8574 C.ar    1  UNL1       -0.0024
     17 C          63.3761   90.7321   16.6676 C.ar    1  UNL1       -0.0003
     18 C          64.3382   91.8471   16.3823 C.ar    1  UNL1       -0.0000
     19 C          65.3525   91.7008   15.2870 C.ar    1  UNL1       -0.0003
     20 C          65.4047   90.4395   14.4768 C.ar    1  UNL1       -0.0024
     21 C          62.6678   82.8779   13.0121 C.2     1  UNL1        0.2493
     22 O          61.6247   83.2049   14.0391 O.2     1  UNL1       -0.2699
     23 N          63.6846   83.9091   12.6210 N.am    1  UNL1       -0.2708
     24 C          62.7737   77.4449   10.4682 C.3     1  UNL1        0.0310
     25 C          62.7472   78.8031   11.1042 C.ar    1  UNL1       -0.0218
     26 C          62.9160   80.0306   10.2586 C.ar    1  UNL1       -0.0041
     27 C          62.8896   81.3888   10.8946 C.ar    1  UNL1        0.0042
     28 C          62.6943   81.5196   12.3761 C.ar    1  UNL1        0.0536
     29 C          62.5255   80.2922   13.2216 C.ar    1  UNL1        0.0042
     30 C          62.5520   78.9339   12.5856 C.ar    1  UNL1       -0.0041
     31 C          64.7278   83.5820   11.5940 C.3     1  UNL1        0.0955
     32 C          64.3774   83.6039   10.1357 C.3     1  UNL1        0.0383
     33 C          63.1904   84.3888    9.6612 C.3     1  UNL1        0.0669
     34 N          63.2507   85.1236    8.3549 N.3     1  UNL1       -0.3211
     35 H          63.9376   85.8749    8.4188 H       1  UNL1        0.1189
     36 H          62.3339   85.5181    8.1442 H       1  UNL1        0.1189
     37 C          64.2171   85.4611   14.6353 C.3     1  UNL1        0.0255
     38 C          63.2919   85.6683   15.7976 C.3     1  UNL1        0.0022
     39 C          65.7014   85.4477   14.8514 C.3     1  UNL1        0.0022
@<TRIPOS>BOND
     1    24    25    1
     2    25    26   ar
     3    26    27   ar
     4    27    28   ar
     5    28    21    1
     6    21    22    2
     7    21    23   am
     8    23    31    1
     9    31    32    1
    10    32    33    1
    11    33    34    1
    12    23     1    1
    13     1     2    1
    14     2     3   ar
    15     3     4   ar
    16     4     5   ar
    17     5     6   ar
    18     6     7    1
    19     6     8   ar
    20     8     9   ar
    21     9    10   ar
    22    10    11   ar
    23    11    12    2
    24    11    13   ar
    25    13    14    1
    26    14    15    1
    27    15    16   ar
    28    16    17   ar
    29    17    18   ar
    30    18    19   ar
    31    19    20   ar
    32     1    37    1
    33    37    38    1
    34    37    39    1
    35    28    29   ar
    36    29    30   ar
    37    30    25   ar
    38    13     2   ar
    39    20    15   ar
    40    10     4   ar
    41    34    35    1
    42    34    36    1
@<TRIPOS>MOLECULE
*****
 39 42 0 0 0
SMALL
GASTEIGER

@<TRIPOS>ATOM
      1 C          62.8447   89.2498   12.1227 C.3     1  UNL1        0.1323
      2 C          62.9300   87.7649   12.3181 C.ar    1  UNL1        0.1409
      3 N          63.5100   87.2072   13.5840 N.ar    1  UNL1       -0.2305
      4 C          63.5953   85.7223   13.7794 C.ar    1  UNL1        0.0881
      5 C          64.1753   85.1646   15.0453 C.ar    1  UNL1        0.0307
      6 C          64.2606   83.6798   15.2406 C.ar    1  UNL1        0.0592
      7 CL         64.8406   83.1220   16.5065 Cl      1  UNL1       -0.0822
      8 C          63.7659   82.7529   14.1701 C.ar    1  UNL1        0.0116
      9 C          63.1859   83.3106   12.9042 C.ar    1  UNL1        0.0071
     10 C          63.1007   84.7954   12.7089 C.ar    1  UNL1        0.0739
     11 C          62.5206   85.3532   11.4430 C.ar    1  UNL1        0.2634
     12 O          62.0260   84.4262   10.3724 O.2     1  UNL1       -0.2669
     13 N          62.4354   86.8380   11.2476 N.ar    1  UNL1       -0.2785
     14 C          61.8553   87.3958    9.9817 C.3     1  UNL1        0.1369
     15 C          61.6876   86.5128    8.7808 C.ar    1  UNL1        0.0005
     16 C          62.8794   85.8261    8.1823 C.ar    1  UNL1       -0.0024
     17 C          62.7116   84.9431    6.9814 C.ar    1  UNL1       -0.0003
     18 C          61.3520   84.7468    6.3790 C.ar    1  UNL1       -0.0000
     19 C          60.1602   85.4335    6.9774 C.ar    1  UNL1       -0.0003
     20 C          60.3280   86.3165    8.1783 C.ar    1  UNL1       -0.0024
     21 C          64.2278   90.2397   14.0867 C.2     1  UNL1        0.2493
     22 O          63.4008   89.4574   15.0634 O.2     1  UNL1       -0.2699
     23 N          63.9498   90.1359   12.6163 N.am    1  UNL1       -0.2708
     24 C          68.6480   93.7842   16.0611 C.3     1  UNL1        0.0310
     25 C          67.5430   92.8981   15.5675 C.ar    1  UNL1       -0.0218
     26 C          66.2118   92.9034   16.2589 C.ar    1  UNL1       -0.0041
     27 C          65.1068   92.0172   15.7653 C.ar    1  UNL1        0.0042
     28 C          65.3329   91.1258   14.5803 C.ar    1  UNL1        0.0536
     29 C          66.6640   91.1205   13.8889 C.ar    1  UNL1        0.0042
     30 C          67.7690   92.0067   14.3825 C.ar    1  UNL1       -0.0041
     31 C          64.7768   90.9182   11.6396 C.3     1  UNL1        0.0955
     32 C          64.5407   92.3893   11.4660 C.3     1  UNL1        0.0383
     33 C          65.6806   93.2942   11.1033 C.3     1  UNL1        0.0669
     34 N          65.9584   94.5172   11.9261 N.3     1  UNL1       -0.3211
     35 H          65.1831   95.1734   11.8323 H       1  UNL1        0.1189
     36 H          66.8184   94.9582   11.5999 H       1  UNL1        0.1189
     37 C          61.6544   89.8484   11.4337 C.3     1  UNL1        0.0255
     38 C          61.8146   90.5049   10.0946 C.3     1  UNL1        0.0022
     39 C          60.3039   89.7905   12.0839 C.3     1  UNL1        0.0022
@<TRIPOS>BOND
     1    24    25    1
     2    25    26   ar
     3    26    27   ar
     4    27    28   ar
     5    28    21    1
     6    21    22    2
     7    21    23   am
     8    23    31    1
     9    31    32    1
    10    32    33    1
    11    33    34    1
    12    23     1    1
    13     1     2    1
    14     2     3   ar
    15     3     4   ar
    16     4     5   ar
    17     5     6   ar
    18     6     7    1
    19     6     8   ar
    20     8     9   ar
    21     9    10   ar
    22    10    11   ar
    23    11    12    2
    24    11    13   ar
    25    13    14    1
    26    14    15    1
    27    15    16   ar
    28    16    17   ar
    29    17    18   ar
    30    18    19   ar
    31    19    20   ar
    32     1    37    1
    33    37    38    1
    34    37    39    1
    35    28    29   ar
    36    29    30   ar
    37    30    25   ar
    38    13     2   ar
    39    20    15   ar
    40    10     4   ar
    41    34    35    1
    42    34    36    1
@<TRIPOS>MOLECULE
*****
 39 42 0 0 0
SMALL
GASTEIGER

@<TRIPOS>ATOM
      1 C          64.5061   90.1117   14.5913 C.3     1  UNL1        0.1323
      2 C          64.1890   88.7216   14.1254 C.ar    1  UNL1        0.1409
      3 N          64.5223   87.5451   14.9942 N.ar    1  UNL1       -0.2305
      4 C          64.2052   86.1549   14.5284 C.ar    1  UNL1        0.0881
      5 C          64.5385   84.9785   15.3972 C.ar    1  UNL1        0.0307
      6 C          64.2214   83.5884   14.9313 C.ar    1  UNL1        0.0592
      7 CL         64.5546   82.4119   15.8001 Cl      1  UNL1       -0.0822
      8 C          63.5710   83.3748   13.5966 C.ar    1  UNL1        0.0116
      9 C          63.2378   84.5512   12.7278 C.ar    1  UNL1        0.0071
     10 C          63.5549   85.9413   13.1937 C.ar    1  UNL1        0.0739
     11 C          63.2216   87.1178   12.3248 C.ar    1  UNL1        0.2634
     12 O          62.5712   86.9042   10.9901 O.2     1  UNL1       -0.2669
     13 N          63.5387   88.5079   12.7907 N.ar    1  UNL1       -0.2785
     14 C          63.2054   89.6844   11.9219 C.3     1  UNL1        0.1369
     15 C          61.9288   89.6975   11.1344 C.ar    1  UNL1        0.0005
     16 C          60.6169   89.8902   11.8358 C.ar    1  UNL1       -0.0024
     17 C          59.3403   89.9032   11.0484 C.ar    1  UNL1       -0.0003
     18 C          59.3756   89.7237    9.5595 C.ar    1  UNL1       -0.0000
     19 C          60.6875   89.5311    8.8582 C.ar    1  UNL1       -0.0003
     20 C          61.9641   89.5180    9.6457 C.ar    1  UNL1       -0.0024
     21 C          64.6328   91.9790   12.7892 C.2     1  UNL1        0.2493
     22 O          63.1348   92.0166   12.7229 O.2     1  UNL1       -0.2699
     23 N          65.3185   91.0265   13.7234 N.am    1  UNL1       -0.2708
     24 C          67.8824   95.6381    9.3177 C.3     1  UNL1        0.0310
     25 C          67.0700   94.7233   10.1856 C.ar    1  UNL1       -0.0218
     26 C          66.6447   95.1688   11.5534 C.ar    1  UNL1       -0.0041
     27 C          65.8323   94.2540   12.4212 C.ar    1  UNL1        0.0042
     28 C          65.4452   92.8938   11.9213 C.ar    1  UNL1        0.0536
     29 C          65.8704   92.4483   10.5536 C.ar    1  UNL1        0.0042
     30 C          66.6828   93.3631    9.6857 C.ar    1  UNL1       -0.0041
     31 C          66.8166   90.9889   13.7897 C.3     1  UNL1        0.0955
     32 C          67.5339   91.6530   14.9273 C.3     1  UNL1        0.0383
     33 C          68.7022   92.5531   14.6540 C.3     1  UNL1        0.0669
     34 N          69.7867   92.1108   13.7169 N.3     1  UNL1       -0.3211
     35 H          70.2773   91.3113   14.1177 H       1  UNL1        0.1189
     36 H          70.4451   92.8765   13.5731 H       1  UNL1        0.1189
     37 C          64.0109   90.5871   15.9249 C.3     1  UNL1        0.0255
     38 C          64.3933   91.9484   16.4252 C.3     1  UNL1        0.0022
     39 C          63.1331   89.7010   16.7583 C.3     1  UNL1        0.0022
@<TRIPOS>BOND
     1    24    25    1
     2    25    26   ar
     3    26    27   ar
     4    27    28   ar
     5    28    21    1
     6    21    22    2
     7    21    23   am
     8    23    31    1
     9    31    32    1
    10    32    33    1
    11    33    34    1
    12    23     1    1
    13     1     2    1
    14     2     3   ar
    15     3     4   ar
    16     4     5   ar
    17     5     6   ar
    18     6     7    1
    19     6     8   ar
    20     8     9   ar
    21     9    10   ar
    22    10    11   ar
    23    11    12    2
    24    11    13   ar
    25    13    14    1
    26    14    15    1
    27    15    16   ar
    28    16    17   ar
    29    17    18   ar
    30    18    19   ar
    31    19    20   ar
    32     1    37    1
    33    37    38    1
    34    37    39    1
    35    28    29   ar
    36    29    30   ar
    37    30    25   ar
    38    13     2   ar
    39    20    15   ar
    40    10     4   ar
    41    34    35    1
    42    34    36    1
