@<TRIPOS>MOLECULE
*****
 17 18 0 0 0
SMALL
GASTEIGER

@<TRIPOS>ATOM
      1 C          63.6017   83.7296   10.5705 C.ar    1  UNL1        0.1387
      2 C          63.7218   84.1514    9.1361 C.ar    1  UNL1        0.0384
      3 C          62.8617   85.2601    8.6058 C.ar    1  UNL1        0.0207
      4 C          61.8816   85.9469    9.5100 C.ar    1  UNL1        0.0657
      5 C          61.7615   85.5250   10.9444 C.ar    1  UNL1        0.0207
      6 C          62.6216   84.4163   11.4746 C.ar    1  UNL1        0.0384
      7 N          61.0215   87.0555    8.9798 N.ar    1  UNL1       -0.2864
      8 C          59.9583   86.9216    7.9301 C.ar    1  UNL1        0.1022
      9 C          59.3533   88.2760    7.7077 C.ar    1  UNL1        0.1196
     10 N          60.0425   89.2471    8.6199 N.ar    1  UNL1       -0.2220
     11 C          61.0735   88.4927    9.4061 C.ar    1  UNL1        0.1828
     12 O          64.4618   82.6209   11.1007 O.3     1  UNL1       -0.4740
     13 C          64.5141   82.3520   12.5755 C.3     1  UNL1        0.2226
     14 C          63.6008   81.3296   13.1842 C.3     1  UNL1        0.1201
     15 C          61.1700   80.9783   14.0315 C.3     1  UNL1        0.0898
     16 N          62.4455   81.7677   14.0347 N.3     1  UNL1       -0.2672
     17 C          62.5656   82.9952   14.8884 C.3     1  UNL1        0.0898
@<TRIPOS>BOND
     1    15    16    1
     2    16    17    1
     3    16    14    1
     4    14    13    1
     5    13    12    1
     6    12     1    1
     7     1     2   ar
     8     2     3   ar
     9     3     4   ar
    10     4     7    1
    11     7     8   ar
    12     8     9   ar
    13     9    10   ar
    14    10    11   ar
    15     4     5   ar
    16     5     6   ar
    17     6     1   ar
    18    11     7   ar
@<TRIPOS>MOLECULE
*****
 17 18 0 0 0
SMALL
GASTEIGER

@<TRIPOS>ATOM
      1 C          63.8931   91.0446   12.3432 C.ar    1  UNL1        0.1387
      2 C          63.5180   91.4540   10.9498 C.ar    1  UNL1        0.0384
      3 C          62.7763   90.4995   10.0616 C.ar    1  UNL1        0.0207
      4 C          62.4096   89.1356   10.5668 C.ar    1  UNL1        0.0657
      5 C          62.7846   88.7262   11.9603 C.ar    1  UNL1        0.0207
      6 C          63.5264   89.6807   12.8484 C.ar    1  UNL1        0.0384
      7 N          61.6679   88.1812    9.6787 N.ar    1  UNL1       -0.2864
      8 C          60.3843   88.4652    8.9563 C.ar    1  UNL1        0.1022
      9 C          60.0026   87.2347    8.1881 C.ar    1  UNL1        0.1196
     10 N          61.0503   86.1901    8.4357 N.ar    1  UNL1       -0.2220
     11 C          62.0795   86.7751    9.3569 C.ar    1  UNL1        0.1828
     12 O          64.6348   91.9990   13.2313 O.3     1  UNL1       -0.4740
     13 C          66.0211   92.4402   12.8662 C.3     1  UNL1        0.2226
     14 C          66.2527   93.8245   12.3371 C.3     1  UNL1        0.1201
     15 C          66.8787   95.3933   10.3630 C.3     1  UNL1        0.0898
     16 N          66.8009   94.0169   10.9541 N.3     1  UNL1       -0.2672
     17 C          67.2711   92.8330   10.1623 C.3     1  UNL1        0.0898
@<TRIPOS>BOND
     1    15    16    1
     2    16    17    1
     3    16    14    1
     4    14    13    1
     5    13    12    1
     6    12     1    1
     7     1     2   ar
     8     2     3   ar
     9     3     4   ar
    10     4     7    1
    11     7     8   ar
    12     8     9   ar
    13     9    10   ar
    14    10    11   ar
    15     4     5   ar
    16     5     6   ar
    17     6     1   ar
    18    11     7   ar
@<TRIPOS>MOLECULE
*****
 17 18 0 0 0
SMALL
GASTEIGER

@<TRIPOS>ATOM
      1 C          63.8706   90.9851   12.4249 C.ar    1  UNL1        0.1387
      2 C          63.5177   89.6015   12.8843 C.ar    1  UNL1        0.0384
      3 C          62.7833   88.6706   11.9655 C.ar    1  UNL1        0.0207
      4 C          62.4017   89.1234   10.5873 C.ar    1  UNL1        0.0657
      5 C          62.7546   90.5070   10.1280 C.ar    1  UNL1        0.0207
      6 C          63.4890   91.4379   11.0468 C.ar    1  UNL1        0.0384
      7 N          61.6673   88.1926    9.6685 N.ar    1  UNL1       -0.2864
      8 C          62.0647   86.7844    9.3380 C.ar    1  UNL1        0.1022
      9 C          61.0496   86.2280    8.3841 C.ar    1  UNL1        0.1196
     10 N          60.0247   87.2922    8.1251 N.ar    1  UNL1       -0.2220
     11 C          60.4065   88.5064    8.9189 C.ar    1  UNL1        0.1828
     12 O          64.6050   91.9159   13.3437 O.3     1  UNL1       -0.4740
     13 C          66.0403   92.2581   13.0742 C.3     1  UNL1        0.2226
     14 C          66.4404   93.6851   12.8423 C.3     1  UNL1        0.1201
     15 C          66.2348   95.6824   11.1936 C.3     1  UNL1        0.0898
     16 N          66.5045   94.2286   11.4457 N.3     1  UNL1       -0.2672
     17 C          66.8383   93.3183   10.3012 C.3     1  UNL1        0.0898
@<TRIPOS>BOND
     1    15    16    1
     2    16    17    1
     3    16    14    1
     4    14    13    1
     5    13    12    1
     6    12     1    1
     7     1     2   ar
     8     2     3   ar
     9     3     4   ar
    10     4     7    1
    11     7     8   ar
    12     8     9   ar
    13     9    10   ar
    14    10    11   ar
    15     4     5   ar
    16     5     6   ar
    17     6     1   ar
    18    11     7   ar
@<TRIPOS>MOLECULE
*****
 17 18 0 0 0
SMALL
GASTEIGER

@<TRIPOS>ATOM
      1 C          63.0594   89.7023   12.6410 C.ar    1  UNL1        0.1387
      2 C          63.5258   90.9751   11.9990 C.ar    1  UNL1        0.0384
      3 C          64.6873   91.7261   12.5794 C.ar    1  UNL1        0.0207
      4 C          65.3824   91.2042   13.8018 C.ar    1  UNL1        0.0657
      5 C          64.9160   89.9314   14.4438 C.ar    1  UNL1        0.0207
      6 C          63.7545   89.1804   13.8634 C.ar    1  UNL1        0.0384
      7 N          66.5440   91.9552   14.3822 N.ar    1  UNL1       -0.2864
      8 C          66.5224   92.7831   15.6329 C.ar    1  UNL1        0.1022
      9 C          67.8961   93.3497   15.8375 C.ar    1  UNL1        0.1196
     10 N          68.7667   92.8721   14.7133 N.ar    1  UNL1       -0.2220
     11 C          67.9310   92.0102   13.8139 C.ar    1  UNL1        0.1828
     12 O          61.8978   88.9513   12.0606 O.3     1  UNL1       -0.4740
     13 C          62.0818   88.1264   10.8214 C.3     1  UNL1        0.2226
     14 C          60.9628   87.2601   10.3241 C.3     1  UNL1        0.1201
     15 C          60.0923   89.0354    8.6387 C.3     1  UNL1        0.0898
     16 N          60.2639   87.6006    9.0413 N.3     1  UNL1       -0.2672
     17 C          59.7367   86.5065    8.1610 C.3     1  UNL1        0.0898
@<TRIPOS>BOND
     1    15    16    1
     2    16    17    1
     3    16    14    1
     4    14    13    1
     5    13    12    1
     6    12     1    1
     7     1     2   ar
     8     2     3   ar
     9     3     4   ar
    10     4     7    1
    11     7     8   ar
    12     8     9   ar
    13     9    10   ar
    14    10    11   ar
    15     4     5   ar
    16     5     6   ar
    17     6     1   ar
    18    11     7   ar
@<TRIPOS>MOLECULE
*****
 17 18 0 0 0
SMALL
GASTEIGER

@<TRIPOS>ATOM
      1 C          63.8287   90.9749   12.3433 C.ar    1  UNL1        0.1387
      2 C          63.4848   89.5969   12.8255 C.ar    1  UNL1        0.0384
      3 C          62.7573   88.6459   11.9219 C.ar    1  UNL1        0.0207
      4 C          62.3739   89.0730   10.5361 C.ar    1  UNL1        0.0657
      5 C          62.7178   90.4511   10.0539 C.ar    1  UNL1        0.0207
      6 C          63.4452   91.4020   10.9575 C.ar    1  UNL1        0.0384
      7 N          61.6465   88.1220    9.6324 N.ar    1  UNL1       -0.2864
      8 C          60.3508   88.3928    8.9268 C.ar    1  UNL1        0.1022
      9 C          59.9906   87.1714    8.1341 C.ar    1  UNL1        0.1196
     10 N          61.0636   86.1457    8.3497 N.ar    1  UNL1       -0.2220
     11 C          62.0870   86.7332    9.2758 C.ar    1  UNL1        0.1828
     12 O          64.5561   91.9259   13.2469 O.3     1  UNL1       -0.4740
     13 C          65.7244   92.7097   12.7266 C.3     1  UNL1        0.2226
     14 C          66.5286   93.5657   13.6596 C.3     1  UNL1        0.1201
     15 C          68.6274   92.6347   14.8755 C.3     1  UNL1        0.0898
     16 N          67.1628   92.9585   14.8759 N.3     1  UNL1       -0.2672
     17 C          66.3323   92.6750   16.0923 C.3     1  UNL1        0.0898
@<TRIPOS>BOND
     1    15    16    1
     2    16    17    1
     3    16    14    1
     4    14    13    1
     5    13    12    1
     6    12     1    1
     7     1     2   ar
     8     2     3   ar
     9     3     4   ar
    10     4     7    1
    11     7     8   ar
    12     8     9   ar
    13     9    10   ar
    14    10    11   ar
    15     4     5   ar
    16     5     6   ar
    17     6     1   ar
    18    11     7   ar
@<TRIPOS>MOLECULE
*****
 17 18 0 0 0
SMALL
GASTEIGER

@<TRIPOS>ATOM
      1 C          61.9345   85.6833    9.1337 C.ar    1  UNL1        0.1387
      2 C          63.0270   84.6557    9.1531 C.ar    1  UNL1        0.0384
      3 C          63.5108   84.1001   10.4597 C.ar    1  UNL1        0.0207
      4 C          62.9021   84.5720   11.7468 C.ar    1  UNL1        0.0657
      5 C          61.8096   85.5996   11.7274 C.ar    1  UNL1        0.0207
      6 C          61.3258   86.1553   10.4208 C.ar    1  UNL1        0.0384
      7 N          63.3860   84.0163   13.0534 N.ar    1  UNL1       -0.2864
      8 C          64.1575   84.7660   14.0987 C.ar    1  UNL1        0.1022
      9 C          64.4316   83.8264   15.2354 C.ar    1  UNL1        0.1196
     10 N          63.8295   82.4960   14.8926 N.ar    1  UNL1       -0.2220
     11 C          63.1833   82.6134   13.5440 C.ar    1  UNL1        0.1828
     12 O          61.4506   86.2390    7.8271 O.3     1  UNL1       -0.4740
     13 C          60.0024   86.1244    7.4536 C.3     1  UNL1        0.2226
     14 C          59.0516   87.2355    7.7876 C.3     1  UNL1        0.1201
     15 C          60.1604   89.2579    8.9836 C.3     1  UNL1        0.0898
     16 N          59.5237   88.6591    7.7646 N.3     1  UNL1       -0.2672
     17 C          59.3593   89.4838    6.5225 C.3     1  UNL1        0.0898
@<TRIPOS>BOND
     1    15    16    1
     2    16    17    1
     3    16    14    1
     4    14    13    1
     5    13    12    1
     6    12     1    1
     7     1     2   ar
     8     2     3   ar
     9     3     4   ar
    10     4     7    1
    11     7     8   ar
    12     8     9   ar
    13     9    10   ar
    14    10    11   ar
    15     4     5   ar
    16     5     6   ar
    17     6     1   ar
    18    11     7   ar
@<TRIPOS>MOLECULE
*****
 17 18 0 0 0
SMALL
GASTEIGER

@<TRIPOS>ATOM
      1 C          62.2822   89.9116   10.5448 C.ar    1  UNL1        0.1387
      2 C          62.5582   89.3956   11.9260 C.ar    1  UNL1        0.0384
      3 C          63.5805   90.0734   12.7894 C.ar    1  UNL1        0.0207
      4 C          64.3268   91.2671   12.2717 C.ar    1  UNL1        0.0657
      5 C          64.0509   91.7830   10.8906 C.ar    1  UNL1        0.0207
      6 C          63.0286   91.1052   10.0271 C.ar    1  UNL1        0.0384
      7 N          65.3491   91.9449   13.1352 N.ar    1  UNL1       -0.2864
      8 C          65.8098   91.4813   14.4853 C.ar    1  UNL1        0.1022
      9 C          66.8356   92.4551   14.9847 C.ar    1  UNL1        0.1196
     10 N          67.0090   93.5205   13.9431 N.ar    1  UNL1       -0.2220
     11 C          66.0903   93.2051   12.8000 C.ar    1  UNL1        0.1828
     12 O          61.2599   89.2338    9.6814 O.3     1  UNL1       -0.4740
     13 C          60.5606   88.0015   10.1737 C.3     1  UNL1        0.2226
     14 C          60.7169   86.7050    9.4357 C.3     1  UNL1        0.1201
     15 C          62.2531   85.3573   11.0402 C.3     1  UNL1        0.0898
     16 N          61.9320   85.8550    9.6620 N.3     1  UNL1       -0.2672
     17 C          62.8260   85.5027    8.5102 C.3     1  UNL1        0.0898
@<TRIPOS>BOND
     1    15    16    1
     2    16    17    1
     3    16    14    1
     4    14    13    1
     5    13    12    1
     6    12     1    1
     7     1     2   ar
     8     2     3   ar
     9     3     4   ar
    10     4     7    1
    11     7     8   ar
    12     8     9   ar
    13     9    10   ar
    14    10    11   ar
    15     4     5   ar
    16     5     6   ar
    17     6     1   ar
    18    11     7   ar
@<TRIPOS>MOLECULE
*****
 17 18 0 0 0
SMALL
GASTEIGER

@<TRIPOS>ATOM
      1 C          62.3559   89.0714   11.6620 C.ar    1  UNL1        0.1387
      2 C          63.2272   89.2771   12.8655 C.ar    1  UNL1        0.0384
      3 C          64.1548   90.4542   12.9276 C.ar    1  UNL1        0.0207
      4 C          64.2112   91.4257   11.7861 C.ar    1  UNL1        0.0657
      5 C          63.3399   91.2200   10.5826 C.ar    1  UNL1        0.0207
      6 C          62.4123   90.0429   10.5205 C.ar    1  UNL1        0.0384
      7 N          65.1389   92.6028   11.8482 N.ar    1  UNL1       -0.2864
      8 C          65.4098   93.5715   10.7355 C.ar    1  UNL1        0.1022
      9 C          66.3969   94.5853   11.2335 C.ar    1  UNL1        0.1196
     10 N          66.7360   94.2431   12.6540 N.ar    1  UNL1       -0.2220
     11 C          65.9585   93.0179   13.0339 C.ar    1  UNL1        0.1828
     12 O          61.4282   87.8943   11.5999 O.3     1  UNL1       -0.4740
     13 C          61.0290   87.3232   10.2716 C.3     1  UNL1        0.2226
     14 C          62.0759   86.7876    9.3404 C.3     1  UNL1        0.1201
     15 C          60.2846   85.9121    7.6746 C.3     1  UNL1        0.0898
     16 N          61.6833   85.8767    8.2151 N.3     1  UNL1       -0.2672
     17 C          62.6896   84.9304    7.6303 C.3     1  UNL1        0.0898
@<TRIPOS>BOND
     1    15    16    1
     2    16    17    1
     3    16    14    1
     4    14    13    1
     5    13    12    1
     6    12     1    1
     7     1     2   ar
     8     2     3   ar
     9     3     4   ar
    10     4     7    1
    11     7     8   ar
    12     8     9   ar
    13     9    10   ar
    14    10    11   ar
    15     4     5   ar
    16     5     6   ar
    17     6     1   ar
    18    11     7   ar
@<TRIPOS>MOLECULE
*****
 17 18 0 0 0
SMALL
GASTEIGER

@<TRIPOS>ATOM
      1 C          64.1665   86.7986   14.4146 C.ar    1  UNL1        0.1387
      2 C          64.3885   85.7189   15.4319 C.ar    1  UNL1        0.0384
      3 C          63.9676   84.3102   15.1344 C.ar    1  UNL1        0.0207
      4 C          63.3247   83.9813   13.8197 C.ar    1  UNL1        0.0657
      5 C          63.1027   85.0610   12.8025 C.ar    1  UNL1        0.0207
      6 C          63.5236   86.4697   13.0999 C.ar    1  UNL1        0.0384
      7 N          62.9037   82.5726   13.5223 N.ar    1  UNL1       -0.2864
      8 C          61.8956   81.7724   14.2925 C.ar    1  UNL1        0.1022
      9 C          61.7858   80.4220   13.6486 C.ar    1  UNL1        0.1196
     10 N          62.7262   80.3877   12.4805 N.ar    1  UNL1       -0.2220
     11 C          63.4171   81.7168   12.4024 C.ar    1  UNL1        0.1828
     12 O          64.5874   88.2073   14.7121 O.3     1  UNL1       -0.4740
     13 C          64.0442   89.3410   13.8938 C.3     1  UNL1        0.2226
     14 C          64.0192   90.7299   14.4599 C.3     1  UNL1        0.1201
     15 C          65.9834   92.3424   15.0003 C.3     1  UNL1        0.0898
     16 N          65.0309   91.7417   14.0094 N.3     1  UNL1       -0.2672
     17 C          65.0899   92.1528   12.5681 C.3     1  UNL1        0.0898
@<TRIPOS>BOND
     1    15    16    1
     2    16    17    1
     3    16    14    1
     4    14    13    1
     5    13    12    1
     6    12     1    1
     7     1     2   ar
     8     2     3   ar
     9     3     4   ar
    10     4     7    1
    11     7     8   ar
    12     8     9   ar
    13     9    10   ar
    14    10    11   ar
    15     4     5   ar
    16     5     6   ar
    17     6     1   ar
    18    11     7   ar
