@<TRIPOS>MOLECULE
*****
 33 37 0 0 0
SMALL
GASTEIGER

@<TRIPOS>ATOM
      1 C          61.6034   94.3661   -1.7681 C.3     1  UNL1        0.1272
      2 C          62.6342   94.9725   -2.6735 C.2     1  UNL1        0.0260
      3 C          62.8630   95.5416   -4.0423 C.2     1  UNL1        0.0757
      4 N          64.3021   95.9537   -4.1383 N.2     1  UNL1       -0.1569
      5 N          64.9627   95.6393   -2.8288 N.2     1  UNL1       -0.1631
      6 C          63.9318   95.0329   -1.9235 C.3     1  UNL1        0.2225
      7 C          63.7030   94.4638   -0.5546 C.2     1  UNL1        0.2581
      8 O          64.7325   94.3303    0.5281 O.2     1  UNL1       -0.2720
      9 N          62.2639   94.0517   -0.4585 N.am    1  UNL1       -0.2508
     10 C          59.1468   95.2004   -1.9074 C.ar    1  UNL1        0.1366
     11 C          57.7080   94.9519   -2.2512 C.ar    1  UNL1        0.0366
     12 C          57.2870   93.6207   -2.7995 C.ar    1  UNL1        0.0031
     13 C          58.3048   92.5380   -3.0040 C.ar    1  UNL1       -0.0001
     14 C          59.7436   92.7865   -2.6602 C.ar    1  UNL1        0.0007
     15 C          60.1646   94.1176   -2.1119 C.ar    1  UNL1        0.0340
     16 C          59.3348   96.8547    0.0871 C.3     1  UNL1        0.2525
     17 O          59.5678   96.5316   -1.3590 O.3     1  UNL1       -0.4717
     18 C          61.6017   93.4337    0.7370 C.ar    1  UNL1        0.0544
     19 C          60.1219   93.5799    0.9339 C.ar    1  UNL1        0.0150
     20 C          59.4596   92.9619    2.1295 C.ar    1  UNL1        0.0044
     21 C          60.2772   92.1977    3.1283 C.ar    1  UNL1        0.0392
     22 C          61.7571   92.0516    2.9314 C.ar    1  UNL1        0.0044
     23 C          62.4193   92.6695    1.7359 C.ar    1  UNL1        0.0150
     24 C          59.6149   91.5797    4.3239 C.ar    1  UNL1        0.2033
     25 N          58.2658   91.9422    4.8701 N.ar    1  UNL1       -0.0560
     26 O          58.0027   91.0772    6.0670 O.2     1  UNL1       -0.3370
     27 C          59.1892   90.1802    6.2605 C.ar    1  UNL1        0.2371
     28 C          59.3509   89.1529    7.3415 C.3     1  UNL1        0.0978
     29 N          60.1857   90.4907    5.1832 N.ar    1  UNL1       -0.1907
     30 C          61.8335   95.6751   -5.1251 C.3     1  UNL1        0.0367
     31 C          61.2399   96.8556   -4.4151 C.3     1  UNL1        0.0060
     32 C          62.4271   94.4946   -5.8350 C.3     1  UNL1        0.0060
     33 C          60.8040   95.8086   -6.2078 C.3     1  UNL1        0.0060
@<TRIPOS>BOND
     1    16    17    1
     2    17    10    1
     3    10    11   ar
     4    11    12   ar
     5    12    13   ar
     6    13    14   ar
     7    14    15   ar
     8    15     1    1
     9     1     2    1
    10     2     3    2
    11     3    30    1
    12    30    31    1
    13    30    32    1
    14    30    33    1
    15     3     4    1
    16     4     5    2
    17     5     6    1
    18     6     7    1
    19     7     8    2
    20     7     9   am
    21     9    18    1
    22    18    19   ar
    23    19    20   ar
    24    20    21   ar
    25    21    24    1
    26    24    25   ar
    27    25    26   ar
    28    26    27   ar
    29    27    28    1
    30    27    29   ar
    31    21    22   ar
    32    22    23   ar
    33    15    10   ar
    34     9     1    1
    35    23    18   ar
    36     6     2    1
    37    29    24   ar
@<TRIPOS>MOLECULE
*****
 33 37 0 0 0
SMALL
GASTEIGER

@<TRIPOS>ATOM
      1 C          60.4059   94.4719   -2.5710 C.3     1  UNL1        0.1272
      2 C          61.2511   95.1609   -3.6011 C.2     1  UNL1        0.0260
      3 C          61.2726   95.6639   -5.0140 C.2     1  UNL1        0.0757
      4 N          62.6185   96.2757   -5.2677 N.2     1  UNL1       -0.1569
      5 N          63.4287   96.1507   -4.0116 N.2     1  UNL1       -0.1631
      6 C          62.5836   95.4617   -2.9815 C.3     1  UNL1        0.2225
      7 C          62.5621   94.9586   -1.5686 C.2     1  UNL1        0.2581
      8 O          63.6886   95.0511   -0.5824 O.2     1  UNL1       -0.2720
      9 N          61.2161   94.3468   -1.3148 N.am    1  UNL1       -0.2508
     10 C          57.8506   94.9414   -2.5821 C.ar    1  UNL1        0.1366
     11 C          56.4425   94.4615   -2.7744 C.ar    1  UNL1        0.0366
     12 C          56.1815   93.0324   -3.1479 C.ar    1  UNL1        0.0031
     13 C          57.3287   92.0831   -3.3292 C.ar    1  UNL1       -0.0001
     14 C          58.7369   92.5630   -3.1368 C.ar    1  UNL1        0.0007
     15 C          58.9978   93.9921   -2.7633 C.ar    1  UNL1        0.0340
     16 C          58.2282   96.7590   -0.7644 C.3     1  UNL1        0.2525
     17 O          58.1116   96.3705   -2.2086 O.3     1  UNL1       -0.4717
     18 C          60.7605   93.7202   -0.0305 C.ar    1  UNL1        0.0544
     19 C          61.7668   93.3221    1.0082 C.ar    1  UNL1        0.0150
     20 C          61.3112   92.6953    2.2926 C.ar    1  UNL1        0.0044
     21 C          59.8492   92.4667    2.5383 C.ar    1  UNL1        0.0392
     22 C          58.8428   92.8648    1.4995 C.ar    1  UNL1        0.0044
     23 C          59.2985   93.4915    0.2152 C.ar    1  UNL1        0.0150
     24 C          59.3935   91.8400    3.8226 C.ar    1  UNL1        0.2033
     25 N          58.0013   91.8830    4.3794 N.ar    1  UNL1       -0.0560
     26 O          57.9974   91.1298    5.6766 O.2     1  UNL1       -0.3370
     27 C          59.3872   90.6213    5.9215 C.ar    1  UNL1        0.2371
     28 C          59.8354   89.8154    7.1046 C.3     1  UNL1        0.0978
     29 N          60.2500   91.0603    4.7757 N.ar    1  UNL1       -0.1907
     30 C          60.1461   95.5715   -6.0001 C.3     1  UNL1        0.0367
     31 C          60.7553   94.3292   -6.5796 C.3     1  UNL1        0.0060
     32 C          59.5369   96.8137   -5.4207 C.3     1  UNL1        0.0060
     33 C          59.0196   95.4790   -6.9863 C.3     1  UNL1        0.0060
@<TRIPOS>BOND
     1    16    17    1
     2    17    10    1
     3    10    11   ar
     4    11    12   ar
     5    12    13   ar
     6    13    14   ar
     7    14    15   ar
     8    15     1    1
     9     1     2    1
    10     2     3    2
    11     3    30    1
    12    30    31    1
    13    30    32    1
    14    30    33    1
    15     3     4    1
    16     4     5    2
    17     5     6    1
    18     6     7    1
    19     7     8    2
    20     7     9   am
    21     9    18    1
    22    18    19   ar
    23    19    20   ar
    24    20    21   ar
    25    21    24    1
    26    24    25   ar
    27    25    26   ar
    28    26    27   ar
    29    27    28    1
    30    27    29   ar
    31    21    22   ar
    32    22    23   ar
    33    15    10   ar
    34     9     1    1
    35    23    18   ar
    36     6     2    1
    37    29    24   ar
@<TRIPOS>MOLECULE
*****
 33 37 0 0 0
SMALL
GASTEIGER

@<TRIPOS>ATOM
      1 C          59.5551   94.7523   -3.3237 C.3     1  UNL1        0.1272
      2 C          60.0305   95.3796   -4.6006 C.2     1  UNL1        0.0260
      3 C          59.5867   95.9017   -5.9349 C.2     1  UNL1        0.0757
      4 N          60.7999   96.3946   -6.6665 N.2     1  UNL1       -0.1569
      5 N          61.9934   96.1772   -5.7844 N.2     1  UNL1       -0.1631
      6 C          61.5179   95.5499   -4.5076 C.3     1  UNL1        0.2225
      7 C          61.9618   95.0278   -3.1732 C.2     1  UNL1        0.2581
      8 O          63.3712   95.0030   -2.6606 O.2     1  UNL1       -0.2720
      9 N          60.7486   94.5348   -2.4415 N.am    1  UNL1       -0.2508
     10 C          57.4229   93.3334   -3.7607 C.ar    1  UNL1        0.1366
     11 C          56.0031   92.9848   -3.4248 C.ar    1  UNL1        0.0366
     12 C          55.2958   93.7063   -2.3162 C.ar    1  UNL1        0.0031
     13 C          56.0082   94.7766   -1.5435 C.ar    1  UNL1       -0.0001
     14 C          57.4280   95.1252   -1.8793 C.ar    1  UNL1        0.0007
     15 C          58.1353   94.4036   -2.9879 C.ar    1  UNL1        0.0340
     16 C          57.3439   92.0241   -6.0033 C.3     1  UNL1        0.2525
     17 O          58.1303   92.6119   -4.8693 O.3     1  UNL1       -0.4717
     18 C          60.7319   93.9306   -1.0688 C.ar    1  UNL1        0.0544
     19 C          60.3074   94.7565    0.1092 C.ar    1  UNL1        0.0150
     20 C          60.2907   94.1523    1.4820 C.ar    1  UNL1        0.0044
     21 C          60.6986   92.7220    1.6769 C.ar    1  UNL1        0.0392
     22 C          61.1232   91.8960    0.4989 C.ar    1  UNL1        0.0044
     23 C          61.1399   92.5003   -0.8738 C.ar    1  UNL1        0.0150
     24 C          60.6820   92.1177    3.0497 C.ar    1  UNL1        0.2033
     25 N          61.8856   91.7680    3.8737 N.ar    1  UNL1       -0.0560
     26 O          61.4062   91.1912    5.1727 O.2     1  UNL1       -0.3370
     27 C          59.9064   91.1844    5.1515 C.ar    1  UNL1        0.2371
     28 C          59.0113   90.6915    6.2497 C.3     1  UNL1        0.0978
     29 N          59.4588   91.7570    3.8394 N.ar    1  UNL1       -0.1907
     30 C          58.1773   95.9265   -6.4476 C.3     1  UNL1        0.0367
     31 C          58.5653   94.9973   -7.5593 C.3     1  UNL1        0.0060
     32 C          57.7892   96.8557   -5.3358 C.3     1  UNL1        0.0060
     33 C          56.7678   95.9513   -6.9602 C.3     1  UNL1        0.0060
@<TRIPOS>BOND
     1    16    17    1
     2    17    10    1
     3    10    11   ar
     4    11    12   ar
     5    12    13   ar
     6    13    14   ar
     7    14    15   ar
     8    15     1    1
     9     1     2    1
    10     2     3    2
    11     3    30    1
    12    30    31    1
    13    30    32    1
    14    30    33    1
    15     3     4    1
    16     4     5    2
    17     5     6    1
    18     6     7    1
    19     7     8    2
    20     7     9   am
    21     9    18    1
    22    18    19   ar
    23    19    20   ar
    24    20    21   ar
    25    21    24    1
    26    24    25   ar
    27    25    26   ar
    28    26    27   ar
    29    27    28    1
    30    27    29   ar
    31    21    22   ar
    32    22    23   ar
    33    15    10   ar
    34     9     1    1
    35    23    18   ar
    36     6     2    1
    37    29    24   ar
@<TRIPOS>MOLECULE
*****
 33 37 0 0 0
SMALL
GASTEIGER

@<TRIPOS>ATOM
      1 C          62.9404   87.3624   12.0486 C.3     1  UNL1        0.1272
      2 C          63.3546   88.7003   12.5858 C.2     1  UNL1        0.0260
      3 C          63.2861   90.1791   12.3439 C.2     1  UNL1        0.0757
      4 N          64.0246   90.8650   13.4549 N.2     1  UNL1       -0.1569
      5 N          64.5494   89.8102   14.3833 N.2     1  UNL1       -0.1631
      6 C          64.1353   88.4723   13.8461 C.3     1  UNL1        0.2225
      7 C          64.2037   86.9935   14.0880 C.2     1  UNL1        0.2581
      8 O          64.8900   86.3190   15.2387 O.2     1  UNL1       -0.2720
      9 N          63.4652   86.3074   12.9770 N.am    1  UNL1       -0.2508
     10 C          60.6742   87.4310   10.7800 C.ar    1  UNL1        0.1366
     11 C          59.8755   87.1901    9.5332 C.ar    1  UNL1        0.0366
     12 C          60.5445   86.6399    8.3086 C.ar    1  UNL1        0.0031
     13 C          62.0121   86.3305    8.3306 C.ar    1  UNL1       -0.0001
     14 C          62.8107   86.5713    9.5773 C.ar    1  UNL1        0.0007
     15 C          62.1418   87.1215   10.8020 C.ar    1  UNL1        0.0340
     16 C          58.7917   88.8523   11.8689 C.3     1  UNL1        0.2525
     17 O          60.0053   87.9812   12.0046 O.3     1  UNL1       -0.4717
     18 C          63.2835   84.8267   12.8217 C.ar    1  UNL1        0.0544
     19 C          63.8647   84.1203   11.6330 C.ar    1  UNL1        0.0150
     20 C          63.6830   82.6394   11.4777 C.ar    1  UNL1        0.0044
     21 C          62.9200   81.8650   12.5112 C.ar    1  UNL1        0.0392
     22 C          62.3387   82.5714   13.7000 C.ar    1  UNL1        0.0044
     23 C          62.5204   84.0522   13.8552 C.ar    1  UNL1        0.0150
     24 C          62.7382   80.3842   12.3559 C.ar    1  UNL1        0.2033
     25 N          62.2802   79.4354   13.4236 N.ar    1  UNL1       -0.0560
     26 O          62.2415   78.0570   12.8332 O.2     1  UNL1       -0.3370
     27 C          62.6755   78.1539   11.4007 C.ar    1  UNL1        0.2371
     28 C          62.7836   77.0128   10.4330 C.3     1  UNL1        0.0978
     29 N          62.9825   79.5922   11.1057 N.ar    1  UNL1       -0.1907
     30 C          62.5998   90.8535   11.1933 C.3     1  UNL1        0.0367
     31 C          61.2803   90.6987   11.8896 C.3     1  UNL1        0.0060
     32 C          63.9193   91.0082   10.4969 C.3     1  UNL1        0.0060
     33 C          61.9135   91.5279   10.0426 C.3     1  UNL1        0.0060
@<TRIPOS>BOND
     1    16    17    1
     2    17    10    1
     3    10    11   ar
     4    11    12   ar
     5    12    13   ar
     6    13    14   ar
     7    14    15   ar
     8    15     1    1
     9     1     2    1
    10     2     3    2
    11     3    30    1
    12    30    31    1
    13    30    32    1
    14    30    33    1
    15     3     4    1
    16     4     5    2
    17     5     6    1
    18     6     7    1
    19     7     8    2
    20     7     9   am
    21     9    18    1
    22    18    19   ar
    23    19    20   ar
    24    20    21   ar
    25    21    24    1
    26    24    25   ar
    27    25    26   ar
    28    26    27   ar
    29    27    28    1
    30    27    29   ar
    31    21    22   ar
    32    22    23   ar
    33    15    10   ar
    34     9     1    1
    35    23    18   ar
    36     6     2    1
    37    29    24   ar
@<TRIPOS>MOLECULE
*****
 33 37 0 0 0
SMALL
GASTEIGER

@<TRIPOS>ATOM
      1 C          63.0238   87.8627   12.3656 C.3     1  UNL1        0.1272
      2 C          63.6720   89.1752   12.6928 C.2     1  UNL1        0.0260
      3 C          63.8798   90.5799   12.2095 C.2     1  UNL1        0.0757
      4 N          64.7208   91.2989   13.2222 N.2     1  UNL1       -0.1569
      5 N          65.0328   90.3386   14.3315 N.2     1  UNL1       -0.1631
      6 C          64.3846   89.0261   14.0043 C.3     1  UNL1        0.2225
      7 C          64.1769   87.6214   14.4877 C.2     1  UNL1        0.2581
      8 O          64.7155   87.0381   15.7603 O.2     1  UNL1       -0.2720
      9 N          63.3358   86.9023   13.4749 N.am    1  UNL1       -0.2508
     10 C          60.7298   87.8236   11.1466 C.ar    1  UNL1        0.1366
     11 C          59.9130   87.5239    9.9246 C.ar    1  UNL1        0.0366
     12 C          60.5734   86.9637    8.6999 C.ar    1  UNL1        0.0031
     13 C          62.0506   86.7032    8.6970 C.ar    1  UNL1       -0.0001
     14 C          62.8674   87.0029    9.9190 C.ar    1  UNL1        0.0007
     15 C          62.2070   87.5630   11.1437 C.ar    1  UNL1        0.0340
     16 C          58.8647   89.2672   12.2363 C.3     1  UNL1        0.2525
     17 O          60.0694   88.3837   12.3714 O.3     1  UNL1       -0.4717
     18 C          62.8858   85.4738   13.5570 C.ar    1  UNL1        0.0544
     19 C          62.4235   84.9072   14.8666 C.ar    1  UNL1        0.0150
     20 C          61.9735   83.4786   14.9487 C.ar    1  UNL1        0.0044
     21 C          61.9857   82.6167   13.7212 C.ar    1  UNL1        0.0392
     22 C          62.4480   83.1834   12.4114 C.ar    1  UNL1        0.0044
     23 C          62.8980   84.6118   12.3293 C.ar    1  UNL1        0.0150
     24 C          61.5357   81.1881   13.8032 C.ar    1  UNL1        0.2033
     25 N          62.3706   79.9815   13.4918 N.ar    1  UNL1       -0.0560
     26 O          61.5226   78.7631   13.7072 O.2     1  UNL1       -0.3370
     27 C          60.1637   79.2167   14.1518 C.ar    1  UNL1        0.2371
     28 C          59.0009   78.3276   14.4795 C.3     1  UNL1        0.0978
     29 N          60.1718   80.7155   14.2112 N.ar    1  UNL1       -0.1907
     30 C          63.3411   91.1632   10.9368 C.3     1  UNL1        0.0367
     31 C          61.9465   90.8212   11.3704 C.3     1  UNL1        0.0060
     32 C          64.7358   91.5052   10.5032 C.3     1  UNL1        0.0060
     33 C          62.8025   91.7465    9.6642 C.3     1  UNL1        0.0060
@<TRIPOS>BOND
     1    16    17    1
     2    17    10    1
     3    10    11   ar
     4    11    12   ar
     5    12    13   ar
     6    13    14   ar
     7    14    15   ar
     8    15     1    1
     9     1     2    1
    10     2     3    2
    11     3    30    1
    12    30    31    1
    13    30    32    1
    14    30    33    1
    15     3     4    1
    16     4     5    2
    17     5     6    1
    18     6     7    1
    19     7     8    2
    20     7     9   am
    21     9    18    1
    22    18    19   ar
    23    19    20   ar
    24    20    21   ar
    25    21    24    1
    26    24    25   ar
    27    25    26   ar
    28    26    27   ar
    29    27    28    1
    30    27    29   ar
    31    21    22   ar
    32    22    23   ar
    33    15    10   ar
    34     9     1    1
    35    23    18   ar
    36     6     2    1
    37    29    24   ar
@<TRIPOS>MOLECULE
*****
 33 37 0 0 0
SMALL
GASTEIGER

@<TRIPOS>ATOM
      1 C          63.1368   85.1818   13.3261 C.3     1  UNL1        0.1272
      2 C          62.8572   84.0783   14.3029 C.2     1  UNL1        0.0260
      3 C          62.5337   82.6187   14.4249 C.2     1  UNL1        0.0757
      4 N          62.4048   82.2929   15.8834 N.2     1  UNL1       -0.1569
      5 N          62.6485   83.5511   16.6628 N.2     1  UNL1       -0.1631
      6 C          62.9281   84.6546   15.6859 C.3     1  UNL1        0.2225
      7 C          63.2515   86.1142   15.5640 C.2     1  UNL1        0.2581
      8 O          63.4169   87.0787   16.7008 O.2     1  UNL1       -0.2720
      9 N          63.3805   86.4401   14.1054 N.am    1  UNL1       -0.2508
     10 C          62.1355   85.7480   10.9965 C.ar    1  UNL1        0.1366
     11 C          62.1661   85.6164    9.5025 C.ar    1  UNL1        0.0366
     12 C          63.2284   84.7869    8.8443 C.ar    1  UNL1        0.0031
     13 C          64.2603   84.0890    9.6800 C.ar    1  UNL1       -0.0001
     14 C          64.2297   84.2206   11.1740 C.ar    1  UNL1        0.0007
     15 C          63.1673   85.0502   11.8322 C.ar    1  UNL1        0.0340
     16 C          60.2401   87.5176   10.8347 C.3     1  UNL1        0.2525
     17 O          61.0731   86.5776   11.6547 O.3     1  UNL1       -0.4717
     18 C          63.6975   87.7875   13.5277 C.ar    1  UNL1        0.0544
     19 C          63.1888   88.1584   12.1662 C.ar    1  UNL1        0.0150
     20 C          63.5058   89.5059   11.5885 C.ar    1  UNL1        0.0044
     21 C          64.3315   90.4826   12.3723 C.ar    1  UNL1        0.0392
     22 C          64.8402   90.1117   13.7339 C.ar    1  UNL1        0.0044
     23 C          64.5232   88.7642   14.3116 C.ar    1  UNL1        0.0150
     24 C          64.6486   91.8301   11.7946 C.ar    1  UNL1        0.2033
     25 N          64.2264   92.3326   10.4459 N.ar    1  UNL1       -0.0560
     26 O          64.7604   93.7247   10.2820 O.2     1  UNL1       -0.3370
     27 C          65.5126   94.0826   11.5295 C.ar    1  UNL1        0.2371
     28 C          66.2112   95.3830   11.7954 C.3     1  UNL1        0.0978
     29 N          65.4435   92.9116   12.4644 N.ar    1  UNL1       -0.1907
     30 C          62.3683   81.6542   13.2880 C.3     1  UNL1        0.0367
     31 C          63.8177   81.8182   12.9381 C.3     1  UNL1        0.0060
     32 C          60.9190   81.4903   13.6380 C.3     1  UNL1        0.0060
     33 C          62.2029   80.6898   12.1512 C.3     1  UNL1        0.0060
@<TRIPOS>BOND
     1    16    17    1
     2    17    10    1
     3    10    11   ar
     4    11    12   ar
     5    12    13   ar
     6    13    14   ar
     7    14    15   ar
     8    15     1    1
     9     1     2    1
    10     2     3    2
    11     3    30    1
    12    30    31    1
    13    30    32    1
    14    30    33    1
    15     3     4    1
    16     4     5    2
    17     5     6    1
    18     6     7    1
    19     7     8    2
    20     7     9   am
    21     9    18    1
    22    18    19   ar
    23    19    20   ar
    24    20    21   ar
    25    21    24    1
    26    24    25   ar
    27    25    26   ar
    28    26    27   ar
    29    27    28    1
    30    27    29   ar
    31    21    22   ar
    32    22    23   ar
    33    15    10   ar
    34     9     1    1
    35    23    18   ar
    36     6     2    1
    37    29    24   ar
