@<TRIPOS>MOLECULE
*****
 39 42 0 0 0
SMALL
GASTEIGER

@<TRIPOS>ATOM
      1 C          62.7084   89.5274   11.8508 C.ar    1  UNL1        0.1744
      2 O          62.3571   90.4582   10.7283 O.2     1  UNL1       -0.3540
      3 N          62.0248   89.6277    9.5242 N.ar    1  UNL1       -0.0815
      4 C          62.1707   88.1835    9.9026 C.ar    1  UNL1        0.1024
      5 C          62.5932   88.1216   11.3405 C.ar    1  UNL1        0.0582
      6 C          61.9354   87.0079    9.0013 C.3     1  UNL1        0.0876
      7 C          63.0922   86.1684    8.5462 C.3     1  UNL1        0.0773
      8 N          62.8570   84.9927    7.6449 N.3     1  UNL1       -0.2970
      9 C          61.4649   84.6565    7.1987 C.3     1  UNL1        0.0714
     10 C          60.3081   85.4959    7.6538 C.3     1  UNL1        0.0486
     11 C          60.5433   86.6716    8.5551 C.3     1  UNL1        0.1149
     12 O          59.0533   86.7535    8.4038 O.3     1  UNL1       -0.3822
     13 H          63.2165   84.1718    8.1319 H       1  UNL1        0.1233
     14 H          58.7466   86.0345    7.8294 H       1  UNL1        0.2107
     15 C          60.2611   87.8758    9.4039 C.ar    1  UNL1        0.0045
     16 C          60.3098   89.2476    8.7993 C.ar    1  UNL1        0.0004
     17 C          60.0277   90.4518    9.6481 C.ar    1  UNL1        0.0317
     18 C          59.6968   90.2840   11.1016 C.ar    1  UNL1        0.1674
     19 F          59.4146   91.4881   11.9503 F       1  UNL1       -0.2018
     20 C          59.6481   88.9121   11.7061 C.ar    1  UNL1        0.1671
     21 F          59.3172   88.7444   13.1595 F       1  UNL1       -0.2018
     22 C          59.9303   87.7080   10.8574 C.ar    1  UNL1        0.0299
     23 C          64.2125   90.9222   13.4453 C.ar    1  UNL1       -0.0175
     24 C          64.6093   91.3262   14.8343 C.ar    1  UNL1       -0.0041
     25 C          63.8987   90.7393   16.0179 C.ar    1  UNL1       -0.0003
     26 C          62.7915   89.7486   15.8124 C.ar    1  UNL1        0.0001
     27 C          62.3947   89.3446   14.4235 C.ar    1  UNL1        0.0028
     28 C          63.1052   89.9314   13.2399 C.ar    1  UNL1        0.0331
     29 C          64.9230   91.5090   12.2617 C.3     1  UNL1        0.0477
     30 C          66.0154   92.5163   12.4664 C.3     1  UNL1        0.0941
     31 C          66.1612   96.2281   11.0695 C.3     1  UNL1        0.0946
     32 C          66.4478   94.7657   11.2403 C.2     1  UNL1        0.2230
     33 O          67.4534   94.0902   10.3557 O.2     1  UNL1       -0.2751
     34 N          65.7288   93.9787   12.2957 N.am    1  UNL1       -0.3040
     35 H          65.0688   94.4220   12.8762 H       1  UNL1        0.1494
     36 C          62.8545   86.8730   12.1296 C.3     1  UNL1        0.1370
     37 C          62.1882   85.5867   11.7407 C.3     1  UNL1        0.0368
     38 O          63.6982   86.5555   13.3286 O.3     1  UNL1       -0.3799
     39 H          63.6049   85.6157   13.5499 H       1  UNL1        0.2108
@<TRIPOS>BOND
     1    31    32    1
     2    32    33    2
     3    32    34   am
     4    34    30    1
     5    30    29    1
     6    29    23    1
     7    23    24   ar
     8    24    25   ar
     9    25    26   ar
    10    26    27   ar
    11    27    28   ar
    12    28     1    1
    13     1     2   ar
    14     2     3   ar
    15     3     4   ar
    16     6     4    1
    17     6     7    1
    18     7     8    1
    19     8     9    1
    20     9    10    1
    21    10    11    1
    22    11    12    1
    23    11    15    1
    24    15    16   ar
    25    16    17   ar
    26    17    18   ar
    27    18    19    1
    28    18    20   ar
    29    20    21    1
    30    20    22   ar
    31     4     5   ar
    32     5    36    1
    33    36    37    1
    34    36    38    1
    35    28    23   ar
    36     5     1   ar
    37    11     6    1
    38    22    15   ar
    39    34    35    1
    40     8    13    1
    41    12    14    1
    42    38    39    1
@<TRIPOS>MOLECULE
*****
 39 42 0 0 0
SMALL
GASTEIGER

@<TRIPOS>ATOM
      1 C          58.9277   93.6120   -3.0816 C.ar    1  UNL1        0.1744
      2 O          58.2607   92.5668   -3.9258 O.2     1  UNL1       -0.3540
      3 N          56.8027   92.9066   -4.0181 N.ar    1  UNL1       -0.0815
      4 C          56.5685   94.1619   -3.2310 C.ar    1  UNL1        0.1024
      5 C          57.8818   94.5978   -2.6522 C.ar    1  UNL1        0.0582
      6 C          55.2521   94.8588   -3.0538 C.3     1  UNL1        0.0876
      7 C          54.5169   94.7529   -1.7507 C.3     1  UNL1        0.0773
      8 N          53.2005   95.4499   -1.5735 N.3     1  UNL1       -0.2970
      9 C          52.6193   96.2527   -2.6995 C.3     1  UNL1        0.0714
     10 C          53.3546   96.3586   -4.0026 C.3     1  UNL1        0.0486
     11 C          54.6709   95.6616   -4.1798 C.3     1  UNL1        0.1149
     12 O          54.5300   96.2993   -5.5301 O.3     1  UNL1       -0.3822
     13 H          53.3080   96.0858   -0.7833 H       1  UNL1        0.1233
     14 H          53.6998   96.7996   -5.5664 H       1  UNL1        0.2107
     15 C          55.9384   95.1861   -4.8259 C.ar    1  UNL1        0.0045
     16 C          55.9680   93.8663   -5.5378 C.ar    1  UNL1        0.0004
     17 C          57.2355   93.3907   -6.1839 C.ar    1  UNL1        0.0317
     18 C          58.4735   94.2353   -6.1181 C.ar    1  UNL1        0.1674
     19 F          59.7409   93.7598   -6.7642 F       1  UNL1       -0.2018
     20 C          58.4439   95.5553   -5.4062 C.ar    1  UNL1        0.1671
     21 F          59.6818   96.3997   -5.3404 F       1  UNL1       -0.2018
     22 C          57.1764   96.0307   -4.7601 C.ar    1  UNL1        0.0299
     23 C          60.8466   93.1946   -1.3805 C.ar    1  UNL1       -0.0175
     24 C          62.3036   93.2452   -1.0277 C.ar    1  UNL1       -0.0041
     25 C          63.2988   93.7638   -2.0231 C.ar    1  UNL1       -0.0003
     26 C          62.8370   94.2317   -3.3713 C.ar    1  UNL1        0.0001
     27 C          61.3800   94.1811   -3.7241 C.ar    1  UNL1        0.0028
     28 C          60.3848   93.6626   -2.7287 C.ar    1  UNL1        0.0331
     29 C          59.8515   92.6761   -0.3851 C.3     1  UNL1        0.0477
     30 C          59.3826   93.5567    0.7350 C.3     1  UNL1        0.0941
     31 C          59.7812   92.0296    4.3764 C.3     1  UNL1        0.0946
     32 C          60.1259   92.6290    3.0452 C.2     1  UNL1        0.2230
     33 O          61.5586   92.8999    2.6931 O.2     1  UNL1       -0.2751
     34 N          59.0379   92.9573    2.0662 N.am    1  UNL1       -0.3040
     35 H          58.0976   92.7795    2.2973 H       1  UNL1        0.1494
     36 C          58.1094   95.8073   -1.7946 C.3     1  UNL1        0.1370
     37 C          59.2824   96.7040   -2.0586 C.3     1  UNL1        0.0368
     38 O          57.3876   96.4049   -0.6233 O.3     1  UNL1       -0.3799
     39 H          57.8498   97.2069   -0.3336 H       1  UNL1        0.2108
@<TRIPOS>BOND
     1    31    32    1
     2    32    33    2
     3    32    34   am
     4    34    30    1
     5    30    29    1
     6    29    23    1
     7    23    24   ar
     8    24    25   ar
     9    25    26   ar
    10    26    27   ar
    11    27    28   ar
    12    28     1    1
    13     1     2   ar
    14     2     3   ar
    15     3     4   ar
    16     6     4    1
    17     6     7    1
    18     7     8    1
    19     8     9    1
    20     9    10    1
    21    10    11    1
    22    11    12    1
    23    11    15    1
    24    15    16   ar
    25    16    17   ar
    26    17    18   ar
    27    18    19    1
    28    18    20   ar
    29    20    21    1
    30    20    22   ar
    31     4     5   ar
    32     5    36    1
    33    36    37    1
    34    36    38    1
    35    28    23   ar
    36     5     1   ar
    37    11     6    1
    38    22    15   ar
    39    34    35    1
    40     8    13    1
    41    12    14    1
    42    38    39    1
@<TRIPOS>MOLECULE
*****
 39 42 0 0 0
SMALL
GASTEIGER

@<TRIPOS>ATOM
      1 C          62.9470   94.3099   -1.2579 C.ar    1  UNL1        0.1744
      2 O          63.5639   93.4552   -2.3251 O.2     1  UNL1       -0.3540
      3 N          62.5170   93.1839   -3.3645 N.ar    1  UNL1       -0.0815
      4 C          61.2530   93.8708   -2.9396 C.ar    1  UNL1        0.1024
      5 C          61.5188   94.5667   -1.6377 C.ar    1  UNL1        0.0582
      6 C          59.9518   93.8632   -3.6857 C.3     1  UNL1        0.0876
      7 C          58.8134   93.0161   -3.1994 C.3     1  UNL1        0.0773
      8 N          57.5121   93.0085   -3.9455 N.3     1  UNL1       -0.2970
      9 C          57.3493   93.8480   -5.1779 C.3     1  UNL1        0.0714
     10 C          58.4877   94.6951   -5.6642 C.3     1  UNL1        0.0486
     11 C          59.7889   94.7027   -4.9181 C.3     1  UNL1        0.1149
     12 O          60.1176   95.6603   -6.0248 O.3     1  UNL1       -0.3822
     13 H          56.7935   93.3094   -3.2872 H       1  UNL1        0.1233
     14 H          59.3476   95.7591   -6.6063 H       1  UNL1        0.2107
     15 C          61.2044   95.0429   -4.5563 C.ar    1  UNL1        0.0045
     16 C          61.4890   96.2081   -3.6558 C.ar    1  UNL1        0.0004
     17 C          62.9044   96.5483   -3.2940 C.ar    1  UNL1        0.0317
     18 C          64.0353   95.7231   -3.8329 C.ar    1  UNL1        0.1674
     19 F          65.4506   96.0632   -3.4711 F       1  UNL1       -0.2018
     20 C          63.7506   94.5578   -4.7335 C.ar    1  UNL1        0.1671
     21 F          64.8814   93.7326   -5.2723 F       1  UNL1       -0.2018
     22 C          62.3352   94.2177   -5.0952 C.ar    1  UNL1        0.0299
     23 C          63.4377   94.1220    1.2865 C.ar    1  UNL1       -0.0175
     24 C          64.1278   94.6306    2.5174 C.ar    1  UNL1       -0.0041
     25 C          65.0174   95.8355    2.4348 C.ar    1  UNL1       -0.0003
     26 C          65.2168   96.5319    1.1213 C.ar    1  UNL1        0.0001
     27 C          64.5267   96.0234   -0.1095 C.ar    1  UNL1        0.0028
     28 C          63.6372   94.8184   -0.0269 C.ar    1  UNL1        0.0331
     29 C          62.5482   92.9170    1.3691 C.3     1  UNL1        0.0477
     30 C          62.0248   92.4609    2.6987 C.3     1  UNL1        0.0941
     31 C          58.5311   92.1123    4.5486 C.3     1  UNL1        0.0946
     32 C          59.9794   91.9226    4.2075 C.2     1  UNL1        0.2230
     33 O          60.8306   91.0049    5.0341 O.2     1  UNL1       -0.2751
     34 N          60.5765   92.6506    3.0398 N.am    1  UNL1       -0.3040
     35 H          60.0178   93.2529    2.4973 H       1  UNL1        0.1494
     36 C          60.5300   95.3772   -0.8533 C.3     1  UNL1        0.1370
     37 C          59.4680   94.6897   -0.0473 C.3     1  UNL1        0.0368
     38 O          60.3144   96.8480   -0.6520 O.3     1  UNL1       -0.3799
     39 H          59.5567   96.9860   -0.0623 H       1  UNL1        0.2108
@<TRIPOS>BOND
     1    31    32    1
     2    32    33    2
     3    32    34   am
     4    34    30    1
     5    30    29    1
     6    29    23    1
     7    23    24   ar
     8    24    25   ar
     9    25    26   ar
    10    26    27   ar
    11    27    28   ar
    12    28     1    1
    13     1     2   ar
    14     2     3   ar
    15     3     4   ar
    16     6     4    1
    17     6     7    1
    18     7     8    1
    19     8     9    1
    20     9    10    1
    21    10    11    1
    22    11    12    1
    23    11    15    1
    24    15    16   ar
    25    16    17   ar
    26    17    18   ar
    27    18    19    1
    28    18    20   ar
    29    20    21    1
    30    20    22   ar
    31     4     5   ar
    32     5    36    1
    33    36    37    1
    34    36    38    1
    35    28    23   ar
    36     5     1   ar
    37    11     6    1
    38    22    15   ar
    39    34    35    1
    40     8    13    1
    41    12    14    1
    42    38    39    1
@<TRIPOS>MOLECULE
*****
 39 42 0 0 0
SMALL
GASTEIGER

@<TRIPOS>ATOM
      1 C          61.6999   94.2825   -0.9470 C.ar    1  UNL1        0.1744
      2 O          61.7909   93.5245   -2.2382 O.2     1  UNL1       -0.3540
      3 N          60.4146   93.4499   -2.8299 N.ar    1  UNL1       -0.0815
      4 C          59.4729   94.1619   -1.9044 C.ar    1  UNL1        0.1024
      5 C          60.2674   94.6765   -0.7408 C.ar    1  UNL1        0.0582
      6 C          57.9962   94.3299   -2.1071 C.3     1  UNL1        0.0876
      7 C          57.0303   93.5460   -1.2689 C.3     1  UNL1        0.0773
      8 N          55.5536   93.7140   -1.4715 N.3     1  UNL1       -0.2970
      9 C          55.0428   94.6658   -2.5123 C.3     1  UNL1        0.0714
     10 C          56.0087   95.4496   -3.3505 C.3     1  UNL1        0.0486
     11 C          57.4855   95.2817   -3.1478 C.3     1  UNL1        0.1149
     12 O          57.4879   96.2977   -4.2513 O.3     1  UNL1       -0.3822
     13 H          55.1666   94.0189   -0.5784 H       1  UNL1        0.1233
     14 H          56.5739   96.5114   -4.4960 H       1  UNL1        0.2107
     15 C          58.9631   95.4666   -3.3284 C.ar    1  UNL1        0.0045
     16 C          59.6866   96.5268   -2.5524 C.ar    1  UNL1        0.0004
     17 C          61.1643   96.7116   -2.7330 C.ar    1  UNL1        0.0317
     18 C          61.9182   95.8362   -3.6897 C.ar    1  UNL1        0.1674
     19 F          63.3958   96.0210   -3.8702 F       1  UNL1       -0.2018
     20 C          61.1946   94.7759   -4.4657 C.ar    1  UNL1        0.1671
     21 F          61.9486   93.9005   -5.4223 F       1  UNL1       -0.2018
     22 C          59.7171   94.5911   -4.2851 C.ar    1  UNL1        0.0299
     23 C          63.0513   93.7683    1.2115 C.ar    1  UNL1       -0.0175
     24 C          64.1925   94.0780    2.1344 C.ar    1  UNL1       -0.0041
     25 C          65.1236   95.2117    1.8215 C.ar    1  UNL1       -0.0003
     26 C          64.9135   96.0357    0.5859 C.ar    1  UNL1        0.0001
     27 C          63.7723   95.7259   -0.3369 C.ar    1  UNL1        0.0028
     28 C          62.8412   94.5922   -0.0241 C.ar    1  UNL1        0.0331
     29 C          62.1203   92.6346    1.5244 C.3     1  UNL1        0.0477
     30 C          61.6418   92.4231    2.9301 C.3     1  UNL1        0.0941
     31 C          58.1371   91.9143    4.7214 C.3     1  UNL1        0.0946
     32 C          59.5959   91.7827    4.3979 C.2     1  UNL1        0.2230
     33 O          60.4675   90.8791    5.2186 O.2     1  UNL1       -0.2751
     34 N          60.1830   92.5548    3.2536 N.am    1  UNL1       -0.3040
     35 H          59.6109   93.1479    2.7150 H       1  UNL1        0.1494
     36 C          59.7245   95.4493    0.4246 C.3     1  UNL1        0.1370
     37 C          58.9282   96.6988    0.1905 C.3     1  UNL1        0.0368
     38 O          59.7834   95.2694    1.9126 O.3     1  UNL1       -0.3799
     39 H          59.3013   95.9916    2.3450 H       1  UNL1        0.2108
@<TRIPOS>BOND
     1    31    32    1
     2    32    33    2
     3    32    34   am
     4    34    30    1
     5    30    29    1
     6    29    23    1
     7    23    24   ar
     8    24    25   ar
     9    25    26   ar
    10    26    27   ar
    11    27    28   ar
    12    28     1    1
    13     1     2   ar
    14     2     3   ar
    15     3     4   ar
    16     6     4    1
    17     6     7    1
    18     7     8    1
    19     8     9    1
    20     9    10    1
    21    10    11    1
    22    11    12    1
    23    11    15    1
    24    15    16   ar
    25    16    17   ar
    26    17    18   ar
    27    18    19    1
    28    18    20   ar
    29    20    21    1
    30    20    22   ar
    31     4     5   ar
    32     5    36    1
    33    36    37    1
    34    36    38    1
    35    28    23   ar
    36     5     1   ar
    37    11     6    1
    38    22    15   ar
    39    34    35    1
    40     8    13    1
    41    12    14    1
    42    38    39    1
@<TRIPOS>MOLECULE
*****
 39 42 0 0 0
SMALL
GASTEIGER

@<TRIPOS>ATOM
      1 C          62.9367   88.6146   11.7406 C.ar    1  UNL1        0.1744
      2 O          62.8586   89.6807   10.6882 O.2     1  UNL1       -0.3540
      3 N          62.4718   89.0275    9.3945 N.ar    1  UNL1       -0.0815
      4 C          62.3107   87.5577    9.6473 C.ar    1  UNL1        0.1024
      5 C          62.5980   87.3026   11.0972 C.ar    1  UNL1        0.0582
      6 C          61.9293   86.5245    8.6289 C.3     1  UNL1        0.0876
      7 C          62.9645   85.5787    8.0962 C.3     1  UNL1        0.0773
      8 N          62.5831   84.5455    7.0778 N.3     1  UNL1       -0.2970
      9 C          61.1666   84.4582    6.5922 C.3     1  UNL1        0.0714
     10 C          60.1314   85.4040    7.1250 C.3     1  UNL1        0.0486
     11 C          60.5128   86.4372    8.1433 C.3     1  UNL1        0.1149
     12 O          59.0526   86.7459    7.9933 O.3     1  UNL1       -0.3822
     13 H          62.8131   83.6368    7.4800 H       1  UNL1        0.1233
     14 H          58.6587   86.1397    7.3466 H       1  UNL1        0.2107
     15 C          60.3871   87.5776    9.1096 C.ar    1  UNL1        0.0045
     16 C          60.6265   88.9837    8.6456 C.ar    1  UNL1        0.0004
     17 C          60.5008   90.1241    9.6119 C.ar    1  UNL1        0.0317
     18 C          60.1357   89.8583   11.0423 C.ar    1  UNL1        0.1674
     19 F          60.0101   90.9987   12.0086 F       1  UNL1       -0.2018
     20 C          59.8964   88.4521   11.5064 C.ar    1  UNL1        0.1671
     21 F          59.5313   88.1863   12.9368 F       1  UNL1       -0.2018
     22 C          60.0220   87.3118   10.5401 C.ar    1  UNL1        0.0299
     23 C          63.6801   90.1884   13.6695 C.ar    1  UNL1       -0.0175
     24 C          64.0345   90.3976   15.1119 C.ar    1  UNL1       -0.0041
     25 C          63.9999   89.2422   16.0679 C.ar    1  UNL1       -0.0003
     26 C          63.6109   87.8776   15.5815 C.ar    1  UNL1        0.0001
     27 C          63.2565   87.6685   14.1390 C.ar    1  UNL1        0.0028
     28 C          63.2911   88.8238   13.1831 C.ar    1  UNL1        0.0331
     29 C          63.7147   91.3438   12.7135 C.3     1  UNL1        0.0477
     30 C          65.0000   92.0778   12.4703 C.3     1  UNL1        0.0941
     31 C          66.8180   93.8342    9.4109 C.3     1  UNL1        0.0946
     32 C          66.6051   93.1023   10.7028 C.2     1  UNL1        0.2230
     33 O          67.7844   92.6630   11.5190 O.2     1  UNL1       -0.2751
     34 N          65.2129   92.8097   11.1784 N.am    1  UNL1       -0.3040
     35 H          64.4389   93.0980   10.6426 H       1  UNL1        0.1494
     36 C          62.5544   85.9694   11.7834 C.3     1  UNL1        0.1370
     37 C          63.4935   84.8782   11.3625 C.3     1  UNL1        0.0368
     38 O          61.7258   85.3960   12.8946 O.3     1  UNL1       -0.3799
     39 H          61.9981   84.4800   13.0614 H       1  UNL1        0.2108
@<TRIPOS>BOND
     1    31    32    1
     2    32    33    2
     3    32    34   am
     4    34    30    1
     5    30    29    1
     6    29    23    1
     7    23    24   ar
     8    24    25   ar
     9    25    26   ar
    10    26    27   ar
    11    27    28   ar
    12    28     1    1
    13     1     2   ar
    14     2     3   ar
    15     3     4   ar
    16     6     4    1
    17     6     7    1
    18     7     8    1
    19     8     9    1
    20     9    10    1
    21    10    11    1
    22    11    12    1
    23    11    15    1
    24    15    16   ar
    25    16    17   ar
    26    17    18   ar
    27    18    19    1
    28    18    20   ar
    29    20    21    1
    30    20    22   ar
    31     4     5   ar
    32     5    36    1
    33    36    37    1
    34    36    38    1
    35    28    23   ar
    36     5     1   ar
    37    11     6    1
    38    22    15   ar
    39    34    35    1
    40     8    13    1
    41    12    14    1
    42    38    39    1
@<TRIPOS>MOLECULE
*****
 39 42 0 0 0
SMALL
GASTEIGER

@<TRIPOS>ATOM
      1 C          61.9921   94.5305   -1.7429 C.ar    1  UNL1        0.1744
      2 O          61.6530   93.5790   -0.6340 O.2     1  UNL1       -0.3540
      3 N          60.2748   93.0440   -0.8876 N.ar    1  UNL1       -0.0815
      4 C          59.7621   93.6649   -2.1532 C.ar    1  UNL1        0.1024
      5 C          60.8235   94.5836   -2.6818 C.ar    1  UNL1        0.0582
      6 C          58.4231   93.4115   -2.7800 C.3     1  UNL1        0.0876
      7 C          58.3160   92.5316   -3.9901 C.3     1  UNL1        0.0773
      8 N          56.9770   92.2782   -4.6170 N.3     1  UNL1       -0.2970
      9 C          55.7452   92.9048   -4.0338 C.3     1  UNL1        0.0714
     10 C          55.8524   93.7848   -2.8238 C.3     1  UNL1        0.0486
     11 C          57.1913   94.0381   -2.1969 C.3     1  UNL1        0.1149
     12 O          56.3194   94.8507   -1.2862 O.3     1  UNL1       -0.3822
     13 H          56.8302   91.2690   -4.6000 H       1  UNL1        0.1233
     14 H          55.3963   94.7816   -1.5759 H       1  UNL1        0.2107
     15 C          58.2275   94.5737   -1.2537 C.ar    1  UNL1        0.0045
     16 C          58.8922   95.8880   -1.5375 C.ar    1  UNL1        0.0004
     17 C          59.9285   96.4235   -0.5943 C.ar    1  UNL1        0.0317
     18 C          60.2999   95.6446    0.6327 C.ar    1  UNL1        0.1674
     19 F          61.3360   96.1802    1.5758 F       1  UNL1       -0.2018
     20 C          59.6351   94.3302    0.9164 C.ar    1  UNL1        0.1671
     21 F          60.0065   93.5514    2.1434 F       1  UNL1       -0.2018
     22 C          58.5990   93.7948   -0.0267 C.ar    1  UNL1        0.0299
     23 C          64.2629   95.3220   -0.7594 C.ar    1  UNL1       -0.0175
     24 C          65.5454   96.0863   -0.9041 C.ar    1  UNL1       -0.0041
     25 C          65.8397   96.8234   -2.1769 C.ar    1  UNL1       -0.0003
     26 C          64.8516   96.7962   -3.3050 C.ar    1  UNL1        0.0001
     27 C          63.5690   96.0320   -3.1603 C.ar    1  UNL1        0.0028
     28 C          63.2747   95.2948   -1.8875 C.ar    1  UNL1        0.0331
     29 C          63.9686   94.5849    0.5134 C.3     1  UNL1        0.0477
     30 C          64.7318   93.3389    0.8522 C.3     1  UNL1        0.0941
     31 C          63.0673   91.1289    3.6974 C.3     1  UNL1        0.0946
     32 C          63.2899   91.8098    2.3795 C.2     1  UNL1        0.2230
     33 O          62.2932   91.6425    1.2711 O.2     1  UNL1       -0.2751
     34 N          64.5092   92.6580    2.1700 N.am    1  UNL1       -0.3040
     35 H          65.1634   92.7678    2.8975 H       1  UNL1        0.1494
     36 C          60.7322   95.4103   -3.9301 C.3     1  UNL1        0.1370
     37 C          60.9651   94.7753   -5.2689 C.3     1  UNL1        0.0368
     38 O          60.4374   96.8554   -4.2036 O.3     1  UNL1       -0.3799
     39 H          60.4701   97.0167   -5.1596 H       1  UNL1        0.2108
@<TRIPOS>BOND
     1    31    32    1
     2    32    33    2
     3    32    34   am
     4    34    30    1
     5    30    29    1
     6    29    23    1
     7    23    24   ar
     8    24    25   ar
     9    25    26   ar
    10    26    27   ar
    11    27    28   ar
    12    28     1    1
    13     1     2   ar
    14     2     3   ar
    15     3     4   ar
    16     6     4    1
    17     6     7    1
    18     7     8    1
    19     8     9    1
    20     9    10    1
    21    10    11    1
    22    11    12    1
    23    11    15    1
    24    15    16   ar
    25    16    17   ar
    26    17    18   ar
    27    18    19    1
    28    18    20   ar
    29    20    21    1
    30    20    22   ar
    31     4     5   ar
    32     5    36    1
    33    36    37    1
    34    36    38    1
    35    28    23   ar
    36     5     1   ar
    37    11     6    1
    38    22    15   ar
    39    34    35    1
    40     8    13    1
    41    12    14    1
    42    38    39    1
@<TRIPOS>MOLECULE
*****
 39 42 0 0 0
SMALL
GASTEIGER

@<TRIPOS>ATOM
      1 C          60.5506   93.6457   -2.5356 C.ar    1  UNL1        0.1744
      2 O          59.6002   92.6728   -1.9029 O.2     1  UNL1       -0.3540
      3 N          58.3827   92.5809   -2.7742 N.ar    1  UNL1       -0.0815
      4 C          58.5805   93.4970   -3.9454 C.ar    1  UNL1        0.1024
      5 C          59.9204   94.1551   -3.7979 C.ar    1  UNL1        0.0582
      6 C          57.6091   93.7165   -5.0671 C.3     1  UNL1        0.0876
      7 C          57.8460   93.0728   -6.4011 C.3     1  UNL1        0.0773
      8 N          56.8746   93.2923   -7.5227 N.3     1  UNL1       -0.2970
      9 C          55.6663   94.1555   -7.3104 C.3     1  UNL1        0.0714
     10 C          55.4295   94.7992   -5.9764 C.3     1  UNL1        0.0486
     11 C          56.4009   94.5797   -4.8548 C.3     1  UNL1        0.1149
     12 O          55.4106   95.4746   -4.1703 O.3     1  UNL1       -0.3822
     13 H          56.5338   92.3722   -7.8014 H       1  UNL1        0.1233
     14 H          54.7022   95.7072   -4.7908 H       1  UNL1        0.2107
     15 C          57.0285   94.6710   -3.4953 C.ar    1  UNL1        0.0045
     16 C          57.9618   95.8004   -3.1745 C.ar    1  UNL1        0.0004
     17 C          58.5894   95.8917   -1.8151 C.ar    1  UNL1        0.0317
     18 C          58.2834   94.8534   -0.7766 C.ar    1  UNL1        0.1674
     19 F          58.9110   94.9446    0.5828 F       1  UNL1       -0.2018
     20 C          57.3500   93.7239   -1.0975 C.ar    1  UNL1        0.1671
     21 F          57.0440   92.6857   -0.0590 F       1  UNL1       -0.2018
     22 C          56.7225   93.6327   -2.4568 C.ar    1  UNL1        0.0299
     23 C          62.2913   93.6502   -0.6068 C.ar    1  UNL1       -0.0175
     24 C          63.6358   94.0445   -0.0713 C.ar    1  UNL1       -0.0041
     25 C          64.5842   94.8285   -0.9291 C.ar    1  UNL1       -0.0003
     26 C          64.1881   95.2183   -2.3223 C.ar    1  UNL1        0.0001
     27 C          62.8436   94.8240   -2.8578 C.ar    1  UNL1        0.0028
     28 C          61.8952   94.0400   -2.0001 C.ar    1  UNL1        0.0331
     29 C          61.3428   92.8662    0.2509 C.3     1  UNL1        0.0477
     30 C          61.4530   92.9329    1.7453 C.3     1  UNL1        0.0941
     31 C          59.0190   92.0835    4.7627 C.3     1  UNL1        0.0946
     32 C          60.2548   92.1553    3.9155 C.2     1  UNL1        0.2230
     33 O          61.5282   91.5212    4.3914 O.2     1  UNL1       -0.2751
     34 N          60.2172   92.8612    2.5925 N.am    1  UNL1       -0.3040
     35 H          59.3815   93.2773    2.2802 H       1  UNL1        0.1494
     36 C          60.5241   95.1481   -4.7463 C.3     1  UNL1        0.1370
     37 C          61.1226   94.6816   -6.0401 C.3     1  UNL1        0.0368
     38 O          60.6970   96.6380   -4.7243 O.3     1  UNL1       -0.3799
     39 H          61.1441   96.9237   -5.5363 H       1  UNL1        0.2108
@<TRIPOS>BOND
     1    31    32    1
     2    32    33    2
     3    32    34   am
     4    34    30    1
     5    30    29    1
     6    29    23    1
     7    23    24   ar
     8    24    25   ar
     9    25    26   ar
    10    26    27   ar
    11    27    28   ar
    12    28     1    1
    13     1     2   ar
    14     2     3   ar
    15     3     4   ar
    16     6     4    1
    17     6     7    1
    18     7     8    1
    19     8     9    1
    20     9    10    1
    21    10    11    1
    22    11    12    1
    23    11    15    1
    24    15    16   ar
    25    16    17   ar
    26    17    18   ar
    27    18    19    1
    28    18    20   ar
    29    20    21    1
    30    20    22   ar
    31     4     5   ar
    32     5    36    1
    33    36    37    1
    34    36    38    1
    35    28    23   ar
    36     5     1   ar
    37    11     6    1
    38    22    15   ar
    39    34    35    1
    40     8    13    1
    41    12    14    1
    42    38    39    1
@<TRIPOS>MOLECULE
*****
 39 42 0 0 0
SMALL
GASTEIGER

@<TRIPOS>ATOM
      1 C          59.6595   93.6526   -3.2768 C.ar    1  UNL1        0.1744
      2 O          58.7408   92.7491   -2.5090 O.2     1  UNL1       -0.3540
      3 N          57.3569   92.9159   -3.0632 N.ar    1  UNL1       -0.0815
      4 C          57.4204   93.9226   -4.1734 C.ar    1  UNL1        0.1024
      5 C          58.8435   94.3779   -4.3054 C.ar    1  UNL1        0.0582
      6 C          56.2639   94.3916   -5.0055 C.3     1  UNL1        0.0876
      7 C          56.1017   93.8955   -6.4118 C.3     1  UNL1        0.0773
      8 N          54.9452   94.3645   -7.2439 N.3     1  UNL1       -0.2970
      9 C          53.9508   95.3297   -6.6697 C.3     1  UNL1        0.0714
     10 C          54.1129   95.8258   -5.2635 C.3     1  UNL1        0.0486
     11 C          55.2695   95.3568   -4.4314 C.3     1  UNL1        0.1149
     12 O          54.5955   96.2691   -3.4499 O.3     1  UNL1       -0.3822
     13 H          54.4232   93.5323   -7.5182 H       1  UNL1        0.1233
     14 H          53.8066   96.6580   -3.8590 H       1  UNL1        0.2107
     15 C          56.1920   95.2046   -3.2584 C.ar    1  UNL1        0.0045
     16 C          55.9231   94.1518   -2.2244 C.ar    1  UNL1        0.0004
     17 C          56.8456   93.9996   -1.0514 C.ar    1  UNL1        0.0317
     18 C          58.0371   94.9003   -0.9125 C.ar    1  UNL1        0.1674
     19 F          58.9595   94.7480    0.2604 F       1  UNL1       -0.2018
     20 C          58.3060   95.9531   -1.9466 C.ar    1  UNL1        0.1671
     21 F          59.4974   96.8537   -1.8077 F       1  UNL1       -0.2018
     22 C          57.3835   96.1052   -3.1195 C.ar    1  UNL1        0.0299
     23 C          61.7488   93.3587   -1.7606 C.ar    1  UNL1       -0.0175
     24 C          63.2245   93.5104   -1.5388 C.ar    1  UNL1       -0.0041
     25 C          64.0867   94.1076   -2.6111 C.ar    1  UNL1       -0.0003
     26 C          63.4732   94.5531   -3.9054 C.ar    1  UNL1        0.0001
     27 C          61.9975   94.4015   -4.1272 C.ar    1  UNL1        0.0028
     28 C          61.1353   93.8042   -3.0548 C.ar    1  UNL1        0.0331
     29 C          60.8866   92.7615   -0.6883 C.3     1  UNL1        0.0477
     30 C          61.2484   92.9478    0.7555 C.3     1  UNL1        0.0941
     31 C          63.5108   90.8132    3.2203 C.3     1  UNL1        0.0946
     32 C          62.9832   91.9698    2.4241 C.2     1  UNL1        0.2230
     33 O          63.6627   93.3048    2.5002 O.2     1  UNL1       -0.2751
     34 N          61.7760   91.7912    1.5517 N.am    1  UNL1       -0.3040
     35 H          61.3300   90.9149    1.5017 H       1  UNL1        0.1494
     36 C          59.3599   95.3821   -5.2927 C.3     1  UNL1        0.1370
     37 C          59.5344   94.9977   -6.7320 C.3     1  UNL1        0.0368
     38 O          59.7883   96.8163   -5.1930 O.3     1  UNL1       -0.3799
     39 H          60.0661   97.1322   -6.0670 H       1  UNL1        0.2108
@<TRIPOS>BOND
     1    31    32    1
     2    32    33    2
     3    32    34   am
     4    34    30    1
     5    30    29    1
     6    29    23    1
     7    23    24   ar
     8    24    25   ar
     9    25    26   ar
    10    26    27   ar
    11    27    28   ar
    12    28     1    1
    13     1     2   ar
    14     2     3   ar
    15     3     4   ar
    16     6     4    1
    17     6     7    1
    18     7     8    1
    19     8     9    1
    20     9    10    1
    21    10    11    1
    22    11    12    1
    23    11    15    1
    24    15    16   ar
    25    16    17   ar
    26    17    18   ar
    27    18    19    1
    28    18    20   ar
    29    20    21    1
    30    20    22   ar
    31     4     5   ar
    32     5    36    1
    33    36    37    1
    34    36    38    1
    35    28    23   ar
    36     5     1   ar
    37    11     6    1
    38    22    15   ar
    39    34    35    1
    40     8    13    1
    41    12    14    1
    42    38    39    1
@<TRIPOS>MOLECULE
*****
 39 42 0 0 0
SMALL
GASTEIGER

@<TRIPOS>ATOM
      1 C          63.0107   87.7263   11.6070 C.ar    1  UNL1        0.1744
      2 O          62.8117   88.9275   10.7310 O.2     1  UNL1       -0.3540
      3 N          62.3793   88.4476    9.3773 N.ar    1  UNL1       -0.0815
      4 C          62.3111   86.9496    9.4165 C.ar    1  UNL1        0.1024
      5 C          62.7014   86.5038   10.7946 C.ar    1  UNL1        0.0582
      6 C          61.9212   86.0546    8.2777 C.3     1  UNL1        0.0876
      7 C          62.9659   85.2450    7.5684 C.3     1  UNL1        0.0773
      8 N          62.5759   84.3500    6.4296 N.3     1  UNL1       -0.2970
      9 C          61.1413   84.2646    6.0001 C.3     1  UNL1        0.0714
     10 C          60.0966   85.0742    6.7094 C.3     1  UNL1        0.0486
     11 C          60.4865   85.9692    7.8482 C.3     1  UNL1        0.1149
     12 O          59.0091   86.2255    7.8096 O.3     1  UNL1       -0.3822
     13 H          62.8634   83.4055    6.6857 H       1  UNL1        0.1233
     14 H          58.6080   85.6992    7.1004 H       1  UNL1        0.2107
     15 C          60.3634   86.9533    8.9737 C.ar    1  UNL1        0.0045
     16 C          60.2639   86.4658   10.3886 C.ar    1  UNL1        0.0004
     17 C          60.1408   87.4498   11.5141 C.ar    1  UNL1        0.0317
     18 C          60.1172   88.9215   11.2244 C.ar    1  UNL1        0.1674
     19 F          59.9941   89.9055   12.3497 F       1  UNL1       -0.2018
     20 C          60.2168   89.4089    9.8092 C.ar    1  UNL1        0.1671
     21 F          60.1933   90.8805    9.5196 F       1  UNL1       -0.2018
     22 C          60.3399   88.4249    8.6839 C.ar    1  UNL1        0.0299
     23 C          63.6660   89.0520   13.7431 C.ar    1  UNL1       -0.0175
     24 C          64.0985   89.0699   15.1793 C.ar    1  UNL1       -0.0041
     25 C          64.3081   87.7800   15.9155 C.ar    1  UNL1       -0.0003
     26 C          64.0853   86.4722   15.2156 C.ar    1  UNL1        0.0001
     27 C          63.6529   86.4543   13.7795 C.ar    1  UNL1        0.0028
     28 C          63.4432   87.7442   13.0432 C.ar    1  UNL1        0.0331
     29 C          63.4564   90.3420   13.0068 C.3     1  UNL1        0.0477
     30 C          64.1615   91.5865   13.4584 C.3     1  UNL1        0.0941
     31 C          66.6083   92.7619   10.5633 C.3     1  UNL1        0.0946
     32 C          65.3685   92.3032   11.2722 C.2     1  UNL1        0.2230
     33 O          64.0960   92.1025   10.5038 O.2     1  UNL1       -0.2751
     34 N          65.4013   92.0452   12.7495 N.am    1  UNL1       -0.3040
     35 H          66.2365   92.1769   13.2538 H       1  UNL1        0.1494
     36 C          62.7701   85.0848   11.2757 C.3     1  UNL1        0.1370
     37 C          63.7231   84.1205   10.6339 C.3     1  UNL1        0.0368
     38 O          62.0549   84.3105   12.3430 O.3     1  UNL1       -0.3799
     39 H          62.3801   83.3967   12.3525 H       1  UNL1        0.2108
@<TRIPOS>BOND
     1    31    32    1
     2    32    33    2
     3    32    34   am
     4    34    30    1
     5    30    29    1
     6    29    23    1
     7    23    24   ar
     8    24    25   ar
     9    25    26   ar
    10    26    27   ar
    11    27    28   ar
    12    28     1    1
    13     1     2   ar
    14     2     3   ar
    15     3     4   ar
    16     6     4    1
    17     6     7    1
    18     7     8    1
    19     8     9    1
    20     9    10    1
    21    10    11    1
    22    11    12    1
    23    11    15    1
    24    15    16   ar
    25    16    17   ar
    26    17    18   ar
    27    18    19    1
    28    18    20   ar
    29    20    21    1
    30    20    22   ar
    31     4     5   ar
    32     5    36    1
    33    36    37    1
    34    36    38    1
    35    28    23   ar
    36     5     1   ar
    37    11     6    1
    38    22    15   ar
    39    34    35    1
    40     8    13    1
    41    12    14    1
    42    38    39    1
