@<TRIPOS>MOLECULE
*****
 35 38 0 0 0
SMALL
GASTEIGER

@<TRIPOS>ATOM
      1 N          61.2986   88.1310   10.5065 N.ar    1  UNL1       -0.2357
      2 N          60.9792   89.5896   10.6488 N.ar    1  UNL1       -0.1663
      3 C          60.1144   89.9900    9.4904 C.ar    1  UNL1        0.1260
      4 C          59.8995   88.7786    8.6321 C.ar    1  UNL1        0.0880
      5 C          59.1318   88.5734    7.3598 C.ar    1  UNL1        0.1384
      6 N          59.0960   87.2194    6.7156 N.ar    1  UNL1       -0.2088
      7 C          59.8279   86.0705    7.3436 C.ar    1  UNL1        0.2014
      8 N          60.5955   86.2757    8.6158 N.ar    1  UNL1       -0.2050
      9 C          60.6313   87.6298    9.2601 C.ar    1  UNL1        0.1653
     10 C          64.6561   84.8730   14.2632 C.2     1  UNL1        0.4046
     11 O          65.5302   85.5564   15.2726 O.2     1  UNL1       -0.2262
     12 N          63.8167   85.6875   13.3240 N.am    1  UNL1       -0.2459
     13 C          62.9427   85.0040   12.3146 C.3     1  UNL1        0.0987
     14 C          62.1033   85.8185   11.3754 C.3     1  UNL1        0.0461
     15 C          62.1379   87.3165   11.4456 C.3     1  UNL1        0.1102
     16 C          63.0120   87.9999   12.4551 C.3     1  UNL1        0.0461
     17 C          63.8514   87.1854   13.3942 C.3     1  UNL1        0.0987
     18 O          64.6214   83.3751   14.1930 O.3     1  UNL1       -0.4418
     19 C          63.6947   81.7975   13.1192 C.3     1  UNL1        0.0437
     20 C          63.3123   82.6497   14.2930 C.3     1  UNL1        0.1378
     21 C          62.9298   83.5018   15.4667 C.3     1  UNL1        0.0437
     22 C          62.0031   81.9243   14.3931 C.3     1  UNL1        0.0437
     23 N          58.4000   89.7224    6.7318 N.pl3   1  UNL1       -0.2960
     24 H          57.4775   89.9282    7.0076 H       1  UNL1        0.1537
     25 C          59.0736   90.5578    5.6838 C.ar    1  UNL1        0.0773
     26 C          60.5506   90.4284    5.4566 C.ar    1  UNL1        0.0182
     27 C          61.2242   91.2638    4.4085 C.ar    1  UNL1        0.0198
     28 C          60.4208   92.2285    3.5876 C.ar    1  UNL1        0.1080
     29 C          58.9437   92.3579    3.8148 C.ar    1  UNL1        0.0492
     30 C          58.2701   91.5225    4.8629 C.ar    1  UNL1        0.1547
     31 F          56.7931   91.6518    5.0901 F       1  UNL1       -0.2028
     32 S          61.0944   93.0638    2.5396 S.O2    1  UNL1        0.0105
     33 C          61.7680   93.8992    1.4915 C.3     1  UNL1        0.1816
     34 O          59.7904   93.7433    2.2430 O.2     1  UNL1       -0.1686
     35 O          62.3984   92.3844    2.8361 O.2     1  UNL1       -0.1686
@<TRIPOS>BOND
     1    19    20    1
     2    20    21    1
     3    20    22    1
     4    20    18    1
     5    18    10    1
     6    10    11    2
     7    10    12   am
     8    12    13    1
     9    13    14    1
    10    14    15    1
    11    15     1    1
    12     1     2   ar
    13     2     3   ar
    14     3     4   ar
    15     4     5   ar
    16     5    23    1
    17    23    25    1
    18    25    26   ar
    19    26    27   ar
    20    27    28   ar
    21    28    32    1
    22    32    33    1
    23    32    34    2
    24    32    35    2
    25    28    29   ar
    26    29    30   ar
    27    30    31    1
    28     5     6   ar
    29     6     7   ar
    30     7     8   ar
    31     8     9   ar
    32    15    16    1
    33    16    17    1
    34    17    12    1
    35     9     1   ar
    36     9     4   ar
    37    30    25   ar
    38    23    24    1
@<TRIPOS>MOLECULE
*****
 35 38 0 0 0
SMALL
GASTEIGER

@<TRIPOS>ATOM
      1 N          61.1125   86.1230    8.9865 N.ar    1  UNL1       -0.2357
      2 N          60.5387   85.6190    7.6955 N.ar    1  UNL1       -0.1663
      3 C          59.8145   86.7546    7.0354 C.ar    1  UNL1        0.1260
      4 C          59.9406   87.9606    7.9186 C.ar    1  UNL1        0.0880
      5 C          59.4287   89.3637    7.7805 C.ar    1  UNL1        0.1384
      6 N          59.7188   90.3764    8.8483 N.ar    1  UNL1       -0.2088
      7 C          60.5210   89.9860   10.0541 C.ar    1  UNL1        0.2014
      8 N          61.0330   88.5829   10.1922 N.ar    1  UNL1       -0.2050
      9 C          60.7428   87.5702    9.1244 C.ar    1  UNL1        0.1653
     10 C          64.3225   82.9137   12.9104 C.2     1  UNL1        0.4046
     11 O          65.3966   81.9879   12.4214 O.2     1  UNL1       -0.2262
     12 N          63.5200   83.7160   11.9295 N.am    1  UNL1       -0.2459
     13 C          62.4459   84.6418   12.4185 C.3     1  UNL1        0.0987
     14 C          61.6434   85.4441   11.4375 C.3     1  UNL1        0.0461
     15 C          61.9150   85.3207    9.9675 C.3     1  UNL1        0.1102
     16 C          62.9891   84.3949    9.4785 C.3     1  UNL1        0.0461
     17 C          63.7916   83.5926   10.4594 C.3     1  UNL1        0.0987
     18 O          64.0509   83.0373   14.3804 O.3     1  UNL1       -0.4418
     19 C          65.4276   84.6501   14.4395 C.3     1  UNL1        0.0437
     20 C          64.0775   84.3855   15.0373 C.3     1  UNL1        0.1378
     21 C          62.7275   84.1209   15.6352 C.3     1  UNL1        0.0437
     22 C          64.1042   85.7338   15.6943 C.3     1  UNL1        0.0437
     23 N          58.6264   89.7541    6.5746 N.pl3   1  UNL1       -0.2960
     24 H          57.7027   89.4295    6.4717 H       1  UNL1        0.1537
     25 C          59.2317   90.6390    5.5255 C.ar    1  UNL1        0.0773
     26 C          60.7070   90.5862    5.2598 C.ar    1  UNL1        0.0182
     27 C          61.3123   91.4710    4.2107 C.ar    1  UNL1        0.0198
     28 C          60.4423   92.4087    3.4273 C.ar    1  UNL1        0.1080
     29 C          58.9669   92.4615    3.6929 C.ar    1  UNL1        0.0492
     30 C          58.3616   91.5767    4.7421 C.ar    1  UNL1        0.1547
     31 F          56.8863   91.6295    5.0077 F       1  UNL1       -0.2028
     32 S          61.0476   93.2936    2.3782 S.O2    1  UNL1        0.0105
     33 C          61.6529   94.1784    1.3291 C.3     1  UNL1        0.1816
     34 O          59.7206   93.9634    2.1775 O.2     1  UNL1       -0.1686
     35 O          62.3746   92.6237    2.5788 O.2     1  UNL1       -0.1686
@<TRIPOS>BOND
     1    19    20    1
     2    20    21    1
     3    20    22    1
     4    20    18    1
     5    18    10    1
     6    10    11    2
     7    10    12   am
     8    12    13    1
     9    13    14    1
    10    14    15    1
    11    15     1    1
    12     1     2   ar
    13     2     3   ar
    14     3     4   ar
    15     4     5   ar
    16     5    23    1
    17    23    25    1
    18    25    26   ar
    19    26    27   ar
    20    27    28   ar
    21    28    32    1
    22    32    33    1
    23    32    34    2
    24    32    35    2
    25    28    29   ar
    26    29    30   ar
    27    30    31    1
    28     5     6   ar
    29     6     7   ar
    30     7     8   ar
    31     8     9   ar
    32    15    16    1
    33    16    17    1
    34    17    12    1
    35     9     1   ar
    36     9     4   ar
    37    30    25   ar
    38    23    24    1
@<TRIPOS>MOLECULE
*****
 35 38 0 0 0
SMALL
GASTEIGER

@<TRIPOS>ATOM
      1 N          63.8231   86.1219   13.9483 N.ar    1  UNL1       -0.2357
      2 N          64.6326   86.6643   15.0887 N.ar    1  UNL1       -0.1663
      3 C          64.7355   88.1510   14.9182 C.ar    1  UNL1        0.1260
      4 C          63.9896   88.5274   13.6724 C.ar    1  UNL1        0.0880
      5 C          63.7510   89.8501   13.0064 C.ar    1  UNL1        0.1384
      6 N          62.9485   89.9187   11.7410 N.ar    1  UNL1       -0.2088
      7 C          62.3847   88.6647   11.1415 C.ar    1  UNL1        0.2014
      8 N          62.6233   87.3420   11.8076 N.ar    1  UNL1       -0.2050
      9 C          63.4257   87.2734   13.0730 C.ar    1  UNL1        0.1653
     10 C          62.4209   80.3582   13.0463 C.2     1  UNL1        0.4046
     11 O          61.2452   79.7526   13.7542 O.2     1  UNL1       -0.2262
     12 N          62.7714   81.7991   13.2718 N.am    1  UNL1       -0.2459
     13 C          63.9471   82.4046   12.5639 C.3     1  UNL1        0.0987
     14 C          64.2976   83.8456   12.7894 C.3     1  UNL1        0.0461
     15 C          63.4726   84.6810   13.7228 C.3     1  UNL1        0.1102
     16 C          62.2969   84.0754   14.4307 C.3     1  UNL1        0.0461
     17 C          61.9464   82.6345   14.2052 C.3     1  UNL1        0.0987
     18 O          63.2460   79.5228   12.1128 O.3     1  UNL1       -0.4418
     19 C          62.5648   77.9173   10.9051 C.3     1  UNL1        0.0437
     20 C          62.8361   79.3749   10.6776 C.3     1  UNL1        0.1378
     21 C          63.1073   80.8325   10.4499 C.3     1  UNL1        0.0437
     22 C          62.4261   79.2271    9.2422 C.3     1  UNL1        0.0437
     23 N          64.3149   91.1042   13.6059 N.pl3   1  UNL1       -0.2960
     24 H          64.2668   91.2498   14.5784 H       1  UNL1        0.1537
     25 C          64.9520   92.1365   12.7236 C.ar    1  UNL1        0.0773
     26 C          64.7377   92.0904   11.2397 C.ar    1  UNL1        0.0182
     27 C          65.3748   93.1227   10.3574 C.ar    1  UNL1        0.0198
     28 C          66.2262   94.2012   10.9590 C.ar    1  UNL1        0.1080
     29 C          66.4405   94.2474   12.4430 C.ar    1  UNL1        0.0492
     30 C          65.8034   93.2151   13.3253 C.ar    1  UNL1        0.1547
     31 F          66.0177   93.2613   14.8091 F       1  UNL1       -0.2028
     32 S          66.8633   95.2335   10.0768 S.O2    1  UNL1        0.0105
     33 C          67.5004   96.2658    9.1945 C.3     1  UNL1        0.1816
     34 O          67.9944   94.2908    9.7905 O.2     1  UNL1       -0.1686
     35 O          65.7322   96.1762   10.3630 O.2     1  UNL1       -0.1686
@<TRIPOS>BOND
     1    19    20    1
     2    20    21    1
     3    20    22    1
     4    20    18    1
     5    18    10    1
     6    10    11    2
     7    10    12   am
     8    12    13    1
     9    13    14    1
    10    14    15    1
    11    15     1    1
    12     1     2   ar
    13     2     3   ar
    14     3     4   ar
    15     4     5   ar
    16     5    23    1
    17    23    25    1
    18    25    26   ar
    19    26    27   ar
    20    27    28   ar
    21    28    32    1
    22    32    33    1
    23    32    34    2
    24    32    35    2
    25    28    29   ar
    26    29    30   ar
    27    30    31    1
    28     5     6   ar
    29     6     7   ar
    30     7     8   ar
    31     8     9   ar
    32    15    16    1
    33    16    17    1
    34    17    12    1
    35     9     1   ar
    36     9     4   ar
    37    30    25   ar
    38    23    24    1
@<TRIPOS>MOLECULE
*****
 35 38 0 0 0
SMALL
GASTEIGER

@<TRIPOS>ATOM
      1 N          63.6072   86.7904   13.3532 N.ar    1  UNL1       -0.2357
      2 N          64.1733   87.6224   14.4656 N.ar    1  UNL1       -0.1663
      3 C          64.0559   89.0649   14.0715 C.ar    1  UNL1        0.1260
      4 C          63.4172   89.1244   12.7155 C.ar    1  UNL1        0.0880
      5 C          63.0524   90.2771   11.8276 C.ar    1  UNL1        0.1384
      6 N          62.4102   90.0241   10.4959 N.ar    1  UNL1       -0.2088
      7 C          62.1329   88.6184   10.0520 C.ar    1  UNL1        0.2014
      8 N          62.4977   87.4657   10.9399 N.ar    1  UNL1       -0.2050
      9 C          63.1399   87.7187   12.2716 C.ar    1  UNL1        0.1653
     10 C          63.2709   80.8007   13.2484 C.2     1  UNL1        0.4046
     11 O          64.1333   79.9849   14.1653 O.2     1  UNL1       -0.2262
     12 N          63.3550   82.2981   13.2746 N.am    1  UNL1       -0.2459
     13 C          62.4925   83.1139   12.3578 C.3     1  UNL1        0.0987
     14 C          62.5766   84.6113   12.3840 C.3     1  UNL1        0.0461
     15 C          63.5231   85.2930   13.3270 C.3     1  UNL1        0.1102
     16 C          64.3856   84.4772   14.2438 C.3     1  UNL1        0.0461
     17 C          64.3015   82.9798   14.2176 C.3     1  UNL1        0.0987
     18 O          62.3243   80.1191   12.3054 O.3     1  UNL1       -0.4418
     19 C          62.4986   78.2290   11.3581 C.3     1  UNL1        0.0437
     20 C          62.8103   79.6436   10.9683 C.3     1  UNL1        0.1378
     21 C          63.1220   81.0581   10.5786 C.3     1  UNL1        0.0437
     22 C          63.2964   79.1681    9.6312 C.3     1  UNL1        0.0437
     23 N          63.3297   91.6828   12.2716 N.pl3   1  UNL1       -0.2960
     24 H          62.6835   92.3984   12.0728 H       1  UNL1        0.1537
     25 C          64.5918   91.9983   13.0184 C.ar    1  UNL1        0.0773
     26 C          64.6086   91.9481   14.5175 C.ar    1  UNL1        0.0182
     27 C          65.8706   92.2635   15.2643 C.ar    1  UNL1        0.0198
     28 C          67.1158   92.6291   14.5121 C.ar    1  UNL1        0.1080
     29 C          67.0990   92.6793   13.0130 C.ar    1  UNL1        0.0492
     30 C          65.8370   92.3639   12.2662 C.ar    1  UNL1        0.1547
     31 F          65.8201   92.4140   10.7671 F       1  UNL1       -0.2028
     32 S          68.3778   92.9445   15.2590 S.O2    1  UNL1        0.0105
     33 C          69.6399   93.2599   16.0059 C.3     1  UNL1        0.1816
     34 O          69.1885   92.4423   14.1012 O.2     1  UNL1       -0.1686
     35 O          67.5671   93.4467   16.4168 O.2     1  UNL1       -0.1686
@<TRIPOS>BOND
     1    19    20    1
     2    20    21    1
     3    20    22    1
     4    20    18    1
     5    18    10    1
     6    10    11    2
     7    10    12   am
     8    12    13    1
     9    13    14    1
    10    14    15    1
    11    15     1    1
    12     1     2   ar
    13     2     3   ar
    14     3     4   ar
    15     4     5   ar
    16     5    23    1
    17    23    25    1
    18    25    26   ar
    19    26    27   ar
    20    27    28   ar
    21    28    32    1
    22    32    33    1
    23    32    34    2
    24    32    35    2
    25    28    29   ar
    26    29    30   ar
    27    30    31    1
    28     5     6   ar
    29     6     7   ar
    30     7     8   ar
    31     8     9   ar
    32    15    16    1
    33    16    17    1
    34    17    12    1
    35     9     1   ar
    36     9     4   ar
    37    30    25   ar
    38    23    24    1
@<TRIPOS>MOLECULE
*****
 35 38 0 0 0
SMALL
GASTEIGER

@<TRIPOS>ATOM
      1 N          64.7282   90.3586   13.2494 N.ar    1  UNL1       -0.2357
      2 N          65.2114   89.7717   14.5425 N.ar    1  UNL1       -0.1663
      3 C          64.6400   88.3904   14.6668 C.ar    1  UNL1        0.1260
      4 C          63.8036   88.1236   13.4505 C.ar    1  UNL1        0.0880
      5 C          62.9993   86.9302   13.0275 C.ar    1  UNL1        0.1384
      6 N          62.2496   86.9531   11.7286 N.ar    1  UNL1       -0.2088
      7 C          62.3041   88.1695   10.8526 C.ar    1  UNL1        0.2014
      8 N          63.1084   89.3630   11.2756 N.ar    1  UNL1       -0.2050
      9 C          63.8581   89.3400   12.5745 C.ar    1  UNL1        0.1653
     10 C          66.0444   95.8214   11.1457 C.2     1  UNL1        0.4046
     11 O          66.8226   96.7840   11.9930 O.2     1  UNL1       -0.2262
     12 N          65.7154   94.4557   11.6717 N.am    1  UNL1       -0.2459
     13 C          64.9371   93.4932   10.8244 C.3     1  UNL1        0.0987
     14 C          64.6081   92.1275   11.3503 C.3     1  UNL1        0.0461
     15 C          65.0572   91.7243   12.7235 C.3     1  UNL1        0.1102
     16 C          65.8354   92.6868   13.5708 C.3     1  UNL1        0.0461
     17 C          66.1645   94.0525   13.0448 C.3     1  UNL1        0.0987
     18 O          65.5953   96.2246    9.7725 O.3     1  UNL1       -0.4418
     19 C          67.5868   95.5428    9.5093 C.3     1  UNL1        0.0437
     20 C          66.5652   96.1994    8.6286 C.3     1  UNL1        0.1378
     21 C          65.5438   96.8559    7.7480 C.3     1  UNL1        0.0437
     22 C          67.5352   96.1742    7.4847 C.3     1  UNL1        0.0437
     23 N          62.9449   85.7138   13.9036 N.pl3   1  UNL1       -0.2960
     24 H          62.9287   85.8128   14.8830 H       1  UNL1        0.1537
     25 C          62.9151   84.3465   13.2874 C.ar    1  UNL1        0.0773
     26 C          63.3550   84.1545   11.8663 C.ar    1  UNL1        0.0182
     27 C          63.3252   82.7873   11.2501 C.ar    1  UNL1        0.0198
     28 C          62.8555   81.6120   12.0550 C.ar    1  UNL1        0.1080
     29 C          62.4155   81.8039   13.4762 C.ar    1  UNL1        0.0492
     30 C          62.4453   83.1711   14.0924 C.ar    1  UNL1        0.1547
     31 F          62.0054   83.3631   15.5135 F       1  UNL1       -0.2028
     32 S          62.8257   80.2447   11.4389 S.O2    1  UNL1        0.0105
     33 C          62.7959   78.8774   10.8227 C.3     1  UNL1        0.1816
     34 O          62.4684   79.6526   12.7699 O.2     1  UNL1       -0.1686
     35 O          63.1830   80.8368   10.1078 O.2     1  UNL1       -0.1686
@<TRIPOS>BOND
     1    19    20    1
     2    20    21    1
     3    20    22    1
     4    20    18    1
     5    18    10    1
     6    10    11    2
     7    10    12   am
     8    12    13    1
     9    13    14    1
    10    14    15    1
    11    15     1    1
    12     1     2   ar
    13     2     3   ar
    14     3     4   ar
    15     4     5   ar
    16     5    23    1
    17    23    25    1
    18    25    26   ar
    19    26    27   ar
    20    27    28   ar
    21    28    32    1
    22    32    33    1
    23    32    34    2
    24    32    35    2
    25    28    29   ar
    26    29    30   ar
    27    30    31    1
    28     5     6   ar
    29     6     7   ar
    30     7     8   ar
    31     8     9   ar
    32    15    16    1
    33    16    17    1
    34    17    12    1
    35     9     1   ar
    36     9     4   ar
    37    30    25   ar
    38    23    24    1
@<TRIPOS>MOLECULE
*****
 35 38 0 0 0
SMALL
GASTEIGER

@<TRIPOS>ATOM
      1 N          61.1556   86.3429    9.6942 N.ar    1  UNL1       -0.2357
      2 N          60.7526   85.6389    8.4324 N.ar    1  UNL1       -0.1663
      3 C          60.0661   86.6346    7.5451 C.ar    1  UNL1        0.1260
      4 C          60.0450   87.9540    8.2585 C.ar    1  UNL1        0.0880
      5 C          59.4995   89.2962    7.8702 C.ar    1  UNL1        0.1384
      6 N          59.6274   90.4582    8.8101 N.ar    1  UNL1       -0.2088
      7 C          60.3008   90.2779   10.1382 C.ar    1  UNL1        0.2014
      8 N          60.8462   88.9356   10.5265 N.ar    1  UNL1       -0.2050
      9 C          60.7183   87.7736    9.5867 C.ar    1  UNL1        0.1653
     10 C          64.0153   83.8699   14.3533 C.2     1  UNL1        0.4046
     11 O          64.8993   84.7128   15.2240 O.2     1  UNL1       -0.2262
     12 N          63.3004   84.4882   13.1885 N.am    1  UNL1       -0.2459
     13 C          62.4164   83.6453   12.3178 C.3     1  UNL1        0.0987
     14 C          61.7015   84.2635   11.1531 C.3     1  UNL1        0.0461
     15 C          61.8705   85.7246   10.8589 C.3     1  UNL1        0.1102
     16 C          62.7545   86.5675   11.7296 C.3     1  UNL1        0.0461
     17 C          63.4694   85.9493   12.8944 C.3     1  UNL1        0.0987
     18 O          63.8462   82.4088   14.6474 O.3     1  UNL1       -0.4418
     19 C          62.0996   81.2573   14.2955 C.3     1  UNL1        0.0437
     20 C          63.3922   81.4737   13.5659 C.3     1  UNL1        0.1378
     21 C          64.6848   81.6901   12.8363 C.3     1  UNL1        0.0437
     22 C          62.9383   80.5387   12.4843 C.3     1  UNL1        0.0437
     23 N          58.8261   89.4765    6.5420 N.pl3   1  UNL1       -0.2960
     24 H          58.0138   88.9630    6.3282 H       1  UNL1        0.1537
     25 C          59.3905   90.4392    5.5396 C.ar    1  UNL1        0.0773
     26 C          60.8609   90.4375    5.2435 C.ar    1  UNL1        0.0182
     27 C          61.4252   91.4002    4.2411 C.ar    1  UNL1        0.0198
     28 C          60.5191   92.3645    3.5347 C.ar    1  UNL1        0.1080
     29 C          59.0485   92.3661    3.8308 C.ar    1  UNL1        0.0492
     30 C          58.4842   91.4035    4.8332 C.ar    1  UNL1        0.1547
     31 F          57.0138   91.4051    5.1292 F       1  UNL1       -0.2028
     32 S          61.0834   93.3271    2.5323 S.O2    1  UNL1        0.0105
     33 C          61.6477   94.2898    1.5299 C.3     1  UNL1        0.1816
     34 O          59.7434   93.9911    2.4156 O.2     1  UNL1       -0.1686
     35 O          62.4233   92.6631    2.6490 O.2     1  UNL1       -0.1686
@<TRIPOS>BOND
     1    19    20    1
     2    20    21    1
     3    20    22    1
     4    20    18    1
     5    18    10    1
     6    10    11    2
     7    10    12   am
     8    12    13    1
     9    13    14    1
    10    14    15    1
    11    15     1    1
    12     1     2   ar
    13     2     3   ar
    14     3     4   ar
    15     4     5   ar
    16     5    23    1
    17    23    25    1
    18    25    26   ar
    19    26    27   ar
    20    27    28   ar
    21    28    32    1
    22    32    33    1
    23    32    34    2
    24    32    35    2
    25    28    29   ar
    26    29    30   ar
    27    30    31    1
    28     5     6   ar
    29     6     7   ar
    30     7     8   ar
    31     8     9   ar
    32    15    16    1
    33    16    17    1
    34    17    12    1
    35     9     1   ar
    36     9     4   ar
    37    30    25   ar
    38    23    24    1
@<TRIPOS>MOLECULE
*****
 35 38 0 0 0
SMALL
GASTEIGER

@<TRIPOS>ATOM
      1 N          63.7847   86.3199   13.8087 N.ar    1  UNL1       -0.2357
      2 N          64.6117   86.8682   14.9336 N.ar    1  UNL1       -0.1663
      3 C          64.7298   88.3512   14.7420 C.ar    1  UNL1        0.1260
      4 C          63.9759   88.7194   13.4986 C.ar    1  UNL1        0.0880
      5 C          63.7458   90.0357   12.8171 C.ar    1  UNL1        0.1384
      6 N          62.9316   90.0966   11.5588 N.ar    1  UNL1       -0.2088
      7 C          62.3475   88.8412   10.9820 C.ar    1  UNL1        0.2014
      8 N          62.5776   87.5249   11.6635 N.ar    1  UNL1       -0.2050
      9 C          63.3918   87.4640   12.9218 C.ar    1  UNL1        0.1653
     10 C          62.3078   80.5612   12.9985 C.2     1  UNL1        0.4046
     11 O          62.6639   79.8688   11.7164 O.2     1  UNL1       -0.2262
     12 N          62.6770   82.0009   13.2010 N.am    1  UNL1       -0.2459
     13 C          62.3209   82.6933   14.4831 C.3     1  UNL1        0.0987
     14 C          62.6901   84.1329   14.6856 C.3     1  UNL1        0.0461
     15 C          63.4155   84.8803   13.6061 C.3     1  UNL1        0.1102
     16 C          63.7716   84.1878   12.3240 C.3     1  UNL1        0.0461
     17 C          63.4024   82.7482   12.1215 C.3     1  UNL1        0.0987
     18 O          61.5824   79.8140   14.0780 O.3     1  UNL1       -0.4418
     19 C          60.2008   81.4219   14.1534 C.3     1  UNL1        0.0437
     20 C          60.0914   79.9265   14.1961 C.3     1  UNL1        0.1378
     21 C          59.9819   78.4311   14.2388 C.3     1  UNL1        0.0437
     22 C          58.6002   80.0389   14.3142 C.3     1  UNL1        0.0437
     23 N          64.3299   91.2912   13.3940 N.pl3   1  UNL1       -0.2960
     24 H          64.2905   91.4518   14.3645 H       1  UNL1        0.1537
     25 C          64.9742   92.3019   12.4921 C.ar    1  UNL1        0.0773
     26 C          64.7393   92.2438   11.0118 C.ar    1  UNL1        0.0182
     27 C          65.3836   93.2545   10.1099 C.ar    1  UNL1        0.0198
     28 C          66.2626   94.3234   10.6884 C.ar    1  UNL1        0.1080
     29 C          66.4975   94.3816   12.1688 C.ar    1  UNL1        0.0492
     30 C          65.8533   93.3708   13.0707 C.ar    1  UNL1        0.1547
     31 F          66.0881   93.4290   14.5510 F       1  UNL1       -0.2028
     32 S          66.9069   95.3341    9.7865 S.O2    1  UNL1        0.0105
     33 C          67.5511   96.3449    8.8847 C.3     1  UNL1        0.1816
     34 O          68.1047   94.4427    9.6431 O.2     1  UNL1       -0.1686
     35 O          65.7091   96.2256    9.9300 O.2     1  UNL1       -0.1686
@<TRIPOS>BOND
     1    19    20    1
     2    20    21    1
     3    20    22    1
     4    20    18    1
     5    18    10    1
     6    10    11    2
     7    10    12   am
     8    12    13    1
     9    13    14    1
    10    14    15    1
    11    15     1    1
    12     1     2   ar
    13     2     3   ar
    14     3     4   ar
    15     4     5   ar
    16     5    23    1
    17    23    25    1
    18    25    26   ar
    19    26    27   ar
    20    27    28   ar
    21    28    32    1
    22    32    33    1
    23    32    34    2
    24    32    35    2
    25    28    29   ar
    26    29    30   ar
    27    30    31    1
    28     5     6   ar
    29     6     7   ar
    30     7     8   ar
    31     8     9   ar
    32    15    16    1
    33    16    17    1
    34    17    12    1
    35     9     1   ar
    36     9     4   ar
    37    30    25   ar
    38    23    24    1
