@<TRIPOS>MOLECULE
*****
 29 33 0 0 0
SMALL
GASTEIGER

@<TRIPOS>ATOM
      1 C          63.7502   85.8819   15.5549 C.ar    1  UNL1        0.2076
      2 N          63.3047   85.5605   16.9507 N.ar    1  UNL1       -0.1277
      3 N          62.9945   86.8522   17.6473 N.ar    1  UNL1       -0.1271
      4 C          63.2483   87.9720   16.6820 C.ar    1  UNL1        0.1865
      5 C          63.1144   89.4601   16.8135 C.ar    1  UNL1        0.0422
      6 C          63.4477   90.3487   15.6518 C.ar    1  UNL1        0.0241
      7 C          63.9147   89.7490   14.3587 C.ar    1  UNL1        0.1015
      8 N          64.0486   88.2608   14.2272 N.ar    1  UNL1       -0.1625
      9 N          63.7153   87.3723   15.3889 N.ar    1  UNL1       -0.1915
     10 C          64.2479   90.6375   13.1970 C.ar    1  UNL1        0.0194
     11 C          65.3613   91.6361   13.3118 C.ar    1  UNL1        0.0016
     12 C          65.6945   92.5247   12.1500 C.ar    1  UNL1        0.0000
     13 C          64.9144   92.4146   10.8737 C.ar    1  UNL1        0.0000
     14 C          63.8010   91.4160   10.7589 C.ar    1  UNL1        0.0000
     15 C          63.4678   90.5274   11.9206 C.ar    1  UNL1        0.0016
     16 C          64.1589   84.8875   14.5088 C.3     1  UNL1        0.2721
     17 O          63.1174   84.2242   13.6571 O.3     1  UNL1       -0.4671
     18 C          61.1465   86.9676    9.4334 C.ar    1  UNL1        0.1402
     19 C          60.9522   87.0628   10.9177 C.ar    1  UNL1        0.0371
     20 C          61.6739   86.1166   11.8308 C.ar    1  UNL1        0.0076
     21 C          62.5900   85.0752   11.2597 C.ar    1  UNL1        0.0519
     22 C          63.3118   84.1290   12.1728 C.ar    1  UNL1        0.1421
     23 C          64.2279   83.0877   11.6016 C.ar    1  UNL1        0.0576
     24 C          64.4222   82.9924   10.1173 C.ar    1  UNL1        0.1019
     25 N          63.7005   83.9386    9.2042 N.ar    1  UNL1       -0.2435
     26 C          62.7844   84.9801    9.7754 C.ar    1  UNL1        0.0872
     27 C          62.0626   85.9262    8.8623 C.ar    1  UNL1        0.0561
     28 C          59.2900   87.4195    7.6730 C.3     1  UNL1        0.2525
     29 O          60.4248   87.9138    8.5203 O.3     1  UNL1       -0.4714
@<TRIPOS>BOND
     1    28    29    1
     2    29    18    1
     3    18    19   ar
     4    19    20   ar
     5    20    21   ar
     6    21    22   ar
     7    22    17    1
     8    17    16    1
     9    16     1    1
    10     1     2   ar
    11     2     3   ar
    12     3     4   ar
    13     4     5   ar
    14     5     6   ar
    15     6     7   ar
    16     7    10    1
    17    10    11   ar
    18    11    12   ar
    19    12    13   ar
    20    13    14   ar
    21    14    15   ar
    22     7     8   ar
    23     8     9   ar
    24    22    23   ar
    25    23    24   ar
    26    24    25   ar
    27    25    26   ar
    28    26    27   ar
    29    27    18   ar
    30    26    21   ar
    31     9     1   ar
    32     9     4   ar
    33    15    10   ar
@<TRIPOS>MOLECULE
*****
 29 33 0 0 0
SMALL
GASTEIGER

@<TRIPOS>ATOM
      1 C          61.4092   89.6659   11.4082 C.ar    1  UNL1        0.2076
      2 N          60.5267   90.4718   10.5018 N.ar    1  UNL1       -0.1277
      3 N          60.0730   89.5805    9.3839 N.ar    1  UNL1       -0.1271
      4 C          60.6752   88.2236    9.5994 C.ar    1  UNL1        0.1865
      5 C          60.5782   86.9469    8.8181 C.ar    1  UNL1        0.0422
      6 C          61.3070   85.7229    9.2878 C.ar    1  UNL1        0.0241
      7 C          62.1328   85.7757   10.5389 C.ar    1  UNL1        0.1015
      8 N          62.2298   87.0524   11.3202 N.ar    1  UNL1       -0.1625
      9 N          61.5010   88.2764   10.8505 N.ar    1  UNL1       -0.1915
     10 C          62.8617   84.5517   11.0087 C.ar    1  UNL1        0.0194
     11 C          62.8249   84.1670   12.4580 C.ar    1  UNL1        0.0016
     12 C          63.5538   82.9430   12.9277 C.ar    1  UNL1        0.0000
     13 C          64.3193   82.1038   11.9482 C.ar    1  UNL1        0.0000
     14 C          64.3561   82.4885   10.4989 C.ar    1  UNL1        0.0000
     15 C          63.6272   83.7125   10.0291 C.ar    1  UNL1        0.0016
     16 C          62.0819   90.1622   12.6537 C.3     1  UNL1        0.2721
     17 O          63.5482   89.9229   12.8604 O.3     1  UNL1       -0.4671
     18 C          66.3536   94.1788   11.0530 C.ar    1  UNL1        0.1402
     19 C          65.5090   93.1320   10.3891 C.ar    1  UNL1        0.0371
     20 C          64.8554   92.0623   11.2129 C.ar    1  UNL1        0.0076
     21 C          65.0464   92.0394   12.7005 C.ar    1  UNL1        0.0519
     22 C          64.3928   90.9697   13.5242 C.ar    1  UNL1        0.1421
     23 C          64.5837   90.9469   15.0118 C.ar    1  UNL1        0.0576
     24 C          65.4283   91.9938   15.6757 C.ar    1  UNL1        0.1019
     25 N          66.0819   93.0635   14.8520 N.ar    1  UNL1       -0.2435
     26 C          65.8909   93.0863   13.3643 C.ar    1  UNL1        0.0872
     27 C          66.5445   94.1560   12.5406 C.ar    1  UNL1        0.0561
     28 C          67.6608   94.8971    8.9257 C.3     1  UNL1        0.2525
     29 O          67.0072   95.2485   10.2292 O.3     1  UNL1       -0.4714
@<TRIPOS>BOND
     1    28    29    1
     2    29    18    1
     3    18    19   ar
     4    19    20   ar
     5    20    21   ar
     6    21    22   ar
     7    22    17    1
     8    17    16    1
     9    16     1    1
    10     1     2   ar
    11     2     3   ar
    12     3     4   ar
    13     4     5   ar
    14     5     6   ar
    15     6     7   ar
    16     7    10    1
    17    10    11   ar
    18    11    12   ar
    19    12    13   ar
    20    13    14   ar
    21    14    15   ar
    22     7     8   ar
    23     8     9   ar
    24    22    23   ar
    25    23    24   ar
    26    24    25   ar
    27    25    26   ar
    28    26    27   ar
    29    27    18   ar
    30    26    21   ar
    31     9     1   ar
    32     9     4   ar
    33    15    10   ar
@<TRIPOS>MOLECULE
*****
 29 33 0 0 0
SMALL
GASTEIGER

@<TRIPOS>ATOM
      1 C          64.1113   86.9424   14.8030 C.ar    1  UNL1        0.2076
      2 N          64.3633   86.1537   16.0538 N.ar    1  UNL1       -0.1277
      3 N          64.0042   84.7233   15.7801 N.ar    1  UNL1       -0.1271
      4 C          63.5304   84.6278   14.3600 C.ar    1  UNL1        0.1865
      5 C          63.0473   83.4694   13.5389 C.ar    1  UNL1        0.0422
      6 C          62.6303   83.6823   12.1138 C.ar    1  UNL1        0.0241
      7 C          62.6965   85.0537   11.5099 C.ar    1  UNL1        0.1015
      8 N          63.1796   86.2123   12.3311 N.ar    1  UNL1       -0.1625
      9 N          63.5966   85.9993   13.7562 N.ar    1  UNL1       -0.1915
     10 C          62.2795   85.2667   10.0849 C.ar    1  UNL1        0.0194
     11 C          63.1176   84.7182    8.9683 C.ar    1  UNL1        0.0016
     12 C          62.7005   84.9312    7.5432 C.ar    1  UNL1        0.0000
     13 C          61.4455   85.6926    7.2348 C.ar    1  UNL1        0.0000
     14 C          60.6075   86.2410    8.3514 C.ar    1  UNL1        0.0000
     15 C          61.0244   86.0281    9.7764 C.ar    1  UNL1        0.0016
     16 C          64.3349   88.4155   14.6294 C.3     1  UNL1        0.2721
     17 O          63.1985   89.3028   14.2156 O.3     1  UNL1       -0.4671
     18 C          66.0357   93.2199   11.7955 C.ar    1  UNL1        0.1402
     19 C          66.0557   92.6182   13.1694 C.ar    1  UNL1        0.0371
     20 C          65.1033   91.5131   13.5181 C.ar    1  UNL1        0.0076
     21 C          64.1310   91.0096   12.4930 C.ar    1  UNL1        0.0519
     22 C          63.1786   89.9045   12.8417 C.ar    1  UNL1        0.1421
     23 C          62.2062   89.4009   11.8166 C.ar    1  UNL1        0.0576
     24 C          62.1862   90.0026   10.4426 C.ar    1  UNL1        0.1019
     25 N          63.1386   91.1077   10.0938 N.ar    1  UNL1       -0.2435
     26 C          64.1110   91.6112   11.1191 C.ar    1  UNL1        0.0872
     27 C          65.0634   92.7163   10.7704 C.ar    1  UNL1        0.0561
     28 C          66.5062   95.5122   10.6670 C.3     1  UNL1        0.2525
     29 O          66.9881   94.3250   11.4468 O.3     1  UNL1       -0.4714
@<TRIPOS>BOND
     1    28    29    1
     2    29    18    1
     3    18    19   ar
     4    19    20   ar
     5    20    21   ar
     6    21    22   ar
     7    22    17    1
     8    17    16    1
     9    16     1    1
    10     1     2   ar
    11     2     3   ar
    12     3     4   ar
    13     4     5   ar
    14     5     6   ar
    15     6     7   ar
    16     7    10    1
    17    10    11   ar
    18    11    12   ar
    19    12    13   ar
    20    13    14   ar
    21    14    15   ar
    22     7     8   ar
    23     8     9   ar
    24    22    23   ar
    25    23    24   ar
    26    24    25   ar
    27    25    26   ar
    28    26    27   ar
    29    27    18   ar
    30    26    21   ar
    31     9     1   ar
    32     9     4   ar
    33    15    10   ar
@<TRIPOS>MOLECULE
*****
 29 33 0 0 0
SMALL
GASTEIGER

@<TRIPOS>ATOM
      1 C          64.1650   87.4515   14.3142 C.ar    1  UNL1        0.2076
      2 N          64.8369   86.3530   15.0836 N.ar    1  UNL1       -0.1277
      3 N          64.5343   85.0542   14.3970 N.ar    1  UNL1       -0.1271
      4 C          63.6755   85.3499   13.2032 C.ar    1  UNL1        0.1865
      5 C          63.0718   84.4616   12.1563 C.ar    1  UNL1        0.0422
      6 C          62.2398   85.0548   11.0580 C.ar    1  UNL1        0.0241
      7 C          62.0116   86.5364   11.0069 C.ar    1  UNL1        0.1015
      8 N          62.6153   87.4248   12.0540 N.ar    1  UNL1       -0.1625
      9 N          63.4473   86.8316   13.1521 N.ar    1  UNL1       -0.1915
     10 C          61.1797   87.1297    9.9088 C.ar    1  UNL1        0.0194
     11 C          61.0180   88.6177    9.8108 C.ar    1  UNL1        0.0016
     12 C          60.1860   89.2109    8.7125 C.ar    1  UNL1        0.0000
     13 C          59.5159   88.3162    7.7125 C.ar    1  UNL1        0.0000
     14 C          59.6776   86.8282    7.8105 C.ar    1  UNL1        0.0000
     15 C          60.5095   86.2349    8.9086 C.ar    1  UNL1        0.0016
     16 C          64.2041   88.9134   14.6483 C.3     1  UNL1        0.2721
     17 O          64.4588   89.9229   13.5685 O.3     1  UNL1       -0.4671
     18 C          65.9104   94.2446   10.6589 C.ar    1  UNL1        0.1402
     19 C          65.1685   92.9798   10.3433 C.ar    1  UNL1        0.0371
     20 C          64.9319   91.9608   11.4184 C.ar    1  UNL1        0.0076
     21 C          65.4373   92.2067   12.8091 C.ar    1  UNL1        0.0519
     22 C          65.2007   91.1878   13.8841 C.ar    1  UNL1        0.1421
     23 C          65.7060   91.4337   15.2748 C.ar    1  UNL1        0.0576
     24 C          66.4480   92.6986   15.5905 C.ar    1  UNL1        0.1019
     25 N          66.6846   93.7175   14.5155 N.ar    1  UNL1       -0.2435
     26 C          66.1792   93.4716   13.1247 C.ar    1  UNL1        0.0872
     27 C          66.4158   94.4905   12.0496 C.ar    1  UNL1        0.0561
     28 C          67.1317   94.9825    8.4878 C.3     1  UNL1        0.2525
     29 O          66.1470   95.2635    9.5838 O.3     1  UNL1       -0.4714
@<TRIPOS>BOND
     1    28    29    1
     2    29    18    1
     3    18    19   ar
     4    19    20   ar
     5    20    21   ar
     6    21    22   ar
     7    22    17    1
     8    17    16    1
     9    16     1    1
    10     1     2   ar
    11     2     3   ar
    12     3     4   ar
    13     4     5   ar
    14     5     6   ar
    15     6     7   ar
    16     7    10    1
    17    10    11   ar
    18    11    12   ar
    19    12    13   ar
    20    13    14   ar
    21    14    15   ar
    22     7     8   ar
    23     8     9   ar
    24    22    23   ar
    25    23    24   ar
    26    24    25   ar
    27    25    26   ar
    28    26    27   ar
    29    27    18   ar
    30    26    21   ar
    31     9     1   ar
    32     9     4   ar
    33    15    10   ar
@<TRIPOS>MOLECULE
*****
 29 33 0 0 0
SMALL
GASTEIGER

@<TRIPOS>ATOM
      1 C          63.3043   89.7821   13.0489 C.ar    1  UNL1        0.2076
      2 N          63.1230   89.2972   14.4567 N.ar    1  UNL1       -0.1277
      3 N          64.0005   90.1247   15.3486 N.ar    1  UNL1       -0.1271
      4 C          64.7240   91.1211   14.4919 C.ar    1  UNL1        0.1865
      5 C          65.7190   92.1937   14.8224 C.ar    1  UNL1        0.0422
      6 C          66.2838   93.0547   13.7316 C.ar    1  UNL1        0.0241
      7 C          65.8535   92.8430   12.3103 C.ar    1  UNL1        0.1015
      8 N          64.8585   91.7703   11.9799 N.ar    1  UNL1       -0.1625
      9 N          64.2937   90.9093   13.0706 N.ar    1  UNL1       -0.1915
     10 C          66.4182   93.7039   11.2195 C.ar    1  UNL1        0.0194
     11 C          67.2109   93.0824   10.1081 C.ar    1  UNL1        0.0016
     12 C          67.7756   93.9435    9.0172 C.ar    1  UNL1        0.0000
     13 C          67.5477   95.4258    9.0380 C.ar    1  UNL1        0.0000
     14 C          66.7551   96.0473   10.1495 C.ar    1  UNL1        0.0000
     15 C          66.1903   95.1864   11.2403 C.ar    1  UNL1        0.0016
     16 C          62.6168   89.2358   11.8328 C.3     1  UNL1        0.2721
     17 O          61.8936   87.9236   11.9060 O.3     1  UNL1       -0.4671
     18 C          63.4126   82.7890   12.6665 C.ar    1  UNL1        0.1402
     19 C          63.0309   83.9083   13.5893 C.ar    1  UNL1        0.0371
     20 C          62.6518   85.2467   13.0282 C.ar    1  UNL1        0.0076
     21 C          62.6544   85.4659   11.5443 C.ar    1  UNL1        0.0519
     22 C          62.2753   86.8044   10.9832 C.ar    1  UNL1        0.1421
     23 C          62.2779   87.0236    9.4994 C.ar    1  UNL1        0.0576
     24 C          62.6596   85.9043    8.5765 C.ar    1  UNL1        0.1019
     25 N          63.0387   84.5659    9.1376 N.ar    1  UNL1       -0.2435
     26 C          63.0361   84.3467   10.6216 C.ar    1  UNL1        0.0872
     27 C          63.4152   83.0082   11.1827 C.ar    1  UNL1        0.0561
     28 C          62.7280   80.4413   13.5438 C.3     1  UNL1        0.2525
     29 O          63.7917   81.4506   13.2276 O.3     1  UNL1       -0.4714
@<TRIPOS>BOND
     1    28    29    1
     2    29    18    1
     3    18    19   ar
     4    19    20   ar
     5    20    21   ar
     6    21    22   ar
     7    22    17    1
     8    17    16    1
     9    16     1    1
    10     1     2   ar
    11     2     3   ar
    12     3     4   ar
    13     4     5   ar
    14     5     6   ar
    15     6     7   ar
    16     7    10    1
    17    10    11   ar
    18    11    12   ar
    19    12    13   ar
    20    13    14   ar
    21    14    15   ar
    22     7     8   ar
    23     8     9   ar
    24    22    23   ar
    25    23    24   ar
    26    24    25   ar
    27    25    26   ar
    28    26    27   ar
    29    27    18   ar
    30    26    21   ar
    31     9     1   ar
    32     9     4   ar
    33    15    10   ar
@<TRIPOS>MOLECULE
*****
 29 33 0 0 0
SMALL
GASTEIGER

@<TRIPOS>ATOM
      1 C          61.3567   89.6667   11.5140 C.ar    1  UNL1        0.2076
      2 N          60.4303   90.4736   10.6534 N.ar    1  UNL1       -0.1277
      3 N          59.9406   89.5902    9.5444 N.ar    1  UNL1       -0.1271
      4 C          60.5643   88.2373    9.7196 C.ar    1  UNL1        0.1865
      5 C          60.4484   86.9685    8.9281 C.ar    1  UNL1        0.0422
      6 C          61.2077   85.7468    9.3538 C.ar    1  UNL1        0.0241
      7 C          62.0829   85.7941   10.5710 C.ar    1  UNL1        0.1015
      8 N          62.1988   87.0630   11.3626 N.ar    1  UNL1       -0.1625
      9 N          61.4395   88.2846   10.9369 N.ar    1  UNL1       -0.1915
     10 C          62.8422   84.5726   10.9967 C.ar    1  UNL1        0.0194
     11 C          63.5532   83.7371    9.9737 C.ar    1  UNL1        0.0016
     12 C          64.3125   82.5155   10.3995 C.ar    1  UNL1        0.0000
     13 C          64.3608   82.1294   11.8481 C.ar    1  UNL1        0.0000
     14 C          63.6498   82.9649   12.8710 C.ar    1  UNL1        0.0000
     15 C          62.8905   84.1865   12.4454 C.ar    1  UNL1        0.0016
     16 C          62.0744   90.1559   12.7370 C.3     1  UNL1        0.2721
     17 O          63.5724   90.1062   12.7977 O.3     1  UNL1       -0.4671
     18 C          67.1190   93.3630   15.2604 C.ar    1  UNL1        0.1402
     19 C          66.3106   92.1802   15.7047 C.ar    1  UNL1        0.0371
     20 C          65.3979   91.4888   14.7357 C.ar    1  UNL1        0.0076
     21 C          65.2935   91.9803   13.3224 C.ar    1  UNL1        0.0519
     22 C          64.3807   91.2890   12.3534 C.ar    1  UNL1        0.1421
     23 C          64.2763   91.7805   10.9401 C.ar    1  UNL1        0.0576
     24 C          65.0847   92.9633   10.4957 C.ar    1  UNL1        0.1019
     25 N          65.9974   93.6547   11.4647 N.ar    1  UNL1       -0.2435
     26 C          66.1018   93.1631   12.8781 C.ar    1  UNL1        0.0872
     27 C          67.0146   93.8545   13.8471 C.ar    1  UNL1        0.0561
     28 C          69.5189   93.9444   16.0679 C.3     1  UNL1        0.2525
     29 O          68.0317   94.0543   16.2294 O.3     1  UNL1       -0.4714
@<TRIPOS>BOND
     1    28    29    1
     2    29    18    1
     3    18    19   ar
     4    19    20   ar
     5    20    21   ar
     6    21    22   ar
     7    22    17    1
     8    17    16    1
     9    16     1    1
    10     1     2   ar
    11     2     3   ar
    12     3     4   ar
    13     4     5   ar
    14     5     6   ar
    15     6     7   ar
    16     7    10    1
    17    10    11   ar
    18    11    12   ar
    19    12    13   ar
    20    13    14   ar
    21    14    15   ar
    22     7     8   ar
    23     8     9   ar
    24    22    23   ar
    25    23    24   ar
    26    24    25   ar
    27    25    26   ar
    28    26    27   ar
    29    27    18   ar
    30    26    21   ar
    31     9     1   ar
    32     9     4   ar
    33    15    10   ar
@<TRIPOS>MOLECULE
*****
 29 33 0 0 0
SMALL
GASTEIGER

@<TRIPOS>ATOM
      1 C          63.2606   88.0310   16.3817 C.ar    1  UNL1        0.2076
      2 N          62.9877   87.7986   17.8382 N.ar    1  UNL1       -0.1277
      3 N          62.7396   86.3325   18.0351 N.ar    1  UNL1       -0.1271
      4 C          62.8591   85.6587   16.7003 C.ar    1  UNL1        0.1865
      5 C          62.7164   84.2250   16.2833 C.ar    1  UNL1        0.0422
      6 C          62.8956   83.8409   14.8444 C.ar    1  UNL1        0.0241
      7 C          63.2176   84.8907   13.8225 C.ar    1  UNL1        0.1015
      8 N          63.3604   86.3245   14.2395 N.ar    1  UNL1       -0.1625
      9 N          63.1811   86.7085   15.6784 N.ar    1  UNL1       -0.1915
     10 C          63.3969   84.5067   12.3836 C.ar    1  UNL1        0.0194
     11 C          62.7086   85.2917   11.3065 C.ar    1  UNL1        0.0016
     12 C          62.8879   84.9076    9.8676 C.ar    1  UNL1        0.0000
     13 C          63.7554   83.7387    9.5058 C.ar    1  UNL1        0.0000
     14 C          64.4437   82.9537   10.5829 C.ar    1  UNL1        0.0000
     15 C          64.2644   83.3377   12.0218 C.ar    1  UNL1        0.0016
     16 C          63.5603   89.3538   15.7408 C.3     1  UNL1        0.2721
     17 O          64.5766   89.4412   14.6410 O.3     1  UNL1       -0.4671
     18 C          66.2074   93.7396   11.7926 C.ar    1  UNL1        0.1402
     19 C          66.5917   93.1683   13.1252 C.ar    1  UNL1        0.0371
     20 C          65.9200   91.9259   13.6305 C.ar    1  UNL1        0.0076
     21 C          64.8640   91.2548   12.8031 C.ar    1  UNL1        0.0519
     22 C          64.1923   90.0125   13.3084 C.ar    1  UNL1        0.1421
     23 C          63.1363   89.3414   12.4811 C.ar    1  UNL1        0.0576
     24 C          62.7520   89.9127   11.1484 C.ar    1  UNL1        0.1019
     25 N          63.4237   91.1551   10.6431 N.ar    1  UNL1       -0.2435
     26 C          64.4797   91.8261   11.4705 C.ar    1  UNL1        0.0872
     27 C          65.1515   93.0685   10.9652 C.ar    1  UNL1        0.0561
     28 C          66.8655   95.2986    9.8212 C.3     1  UNL1        0.2525
     29 O          66.8791   94.9820   11.2873 O.3     1  UNL1       -0.4714
@<TRIPOS>BOND
     1    28    29    1
     2    29    18    1
     3    18    19   ar
     4    19    20   ar
     5    20    21   ar
     6    21    22   ar
     7    22    17    1
     8    17    16    1
     9    16     1    1
    10     1     2   ar
    11     2     3   ar
    12     3     4   ar
    13     4     5   ar
    14     5     6   ar
    15     6     7   ar
    16     7    10    1
    17    10    11   ar
    18    11    12   ar
    19    12    13   ar
    20    13    14   ar
    21    14    15   ar
    22     7     8   ar
    23     8     9   ar
    24    22    23   ar
    25    23    24   ar
    26    24    25   ar
    27    25    26   ar
    28    26    27   ar
    29    27    18   ar
    30    26    21   ar
    31     9     1   ar
    32     9     4   ar
    33    15    10   ar
@<TRIPOS>MOLECULE
*****
 29 33 0 0 0
SMALL
GASTEIGER

@<TRIPOS>ATOM
      1 C          63.5948   90.4782   14.6157 C.ar    1  UNL1        0.2076
      2 N          63.4453   90.5983   16.1033 N.ar    1  UNL1       -0.1277
      3 N          64.4533   91.5961   16.5914 N.ar    1  UNL1       -0.1271
      4 C          65.2258   92.0927   15.4054 C.ar    1  UNL1        0.1865
      5 C          66.3438   93.0847   15.2795 C.ar    1  UNL1        0.0422
      6 C          66.9313   93.3858   13.9326 C.ar    1  UNL1        0.0241
      7 C          66.4007   92.6949   12.7115 C.ar    1  UNL1        0.1015
      8 N          65.2827   91.7028   12.8374 N.ar    1  UNL1       -0.1625
      9 N          64.6952   91.4017   14.1843 N.ar    1  UNL1       -0.1915
     10 C          66.9882   92.9959   11.3646 C.ar    1  UNL1        0.0194
     11 C          67.9768   92.0505   10.7492 C.ar    1  UNL1        0.0016
     12 C          68.5642   92.3516    9.4022 C.ar    1  UNL1        0.0000
     13 C          68.1630   93.5981    8.6707 C.ar    1  UNL1        0.0000
     14 C          67.1744   94.5435    9.2860 C.ar    1  UNL1        0.0000
     15 C          66.5870   94.2425   10.6330 C.ar    1  UNL1        0.0016
     16 C          62.7859   89.5903   13.7171 C.3     1  UNL1        0.2721
     17 O          63.4235   88.9587   12.5152 O.3     1  UNL1       -0.4671
     18 C          59.9335   88.4377    8.4167 C.ar    1  UNL1        0.1402
     19 C          60.5876   89.6117    9.0829 C.ar    1  UNL1        0.0371
     20 C          61.5329   89.3940   10.2270 C.ar    1  UNL1        0.0076
     21 C          61.8241   88.0023   10.7049 C.ar    1  UNL1        0.0519
     22 C          62.7694   87.7847   11.8491 C.ar    1  UNL1        0.1421
     23 C          63.0605   86.3930   12.3270 C.ar    1  UNL1        0.0576
     24 C          62.4064   85.2190   11.6609 C.ar    1  UNL1        0.1019
     25 N          61.4611   85.4366   10.5167 N.ar    1  UNL1       -0.2435
     26 C          61.1699   86.8284   10.0388 C.ar    1  UNL1        0.0872
     27 C          60.2246   87.0460    8.8947 C.ar    1  UNL1        0.0561
     28 C          59.2828   89.7088    6.2463 C.3     1  UNL1        0.2525
     29 O          58.9881   88.6554    7.2726 O.3     1  UNL1       -0.4714
@<TRIPOS>BOND
     1    28    29    1
     2    29    18    1
     3    18    19   ar
     4    19    20   ar
     5    20    21   ar
     6    21    22   ar
     7    22    17    1
     8    17    16    1
     9    16     1    1
    10     1     2   ar
    11     2     3   ar
    12     3     4   ar
    13     4     5   ar
    14     5     6   ar
    15     6     7   ar
    16     7    10    1
    17    10    11   ar
    18    11    12   ar
    19    12    13   ar
    20    13    14   ar
    21    14    15   ar
    22     7     8   ar
    23     8     9   ar
    24    22    23   ar
    25    23    24   ar
    26    24    25   ar
    27    25    26   ar
    28    26    27   ar
    29    27    18   ar
    30    26    21   ar
    31     9     1   ar
    32     9     4   ar
    33    15    10   ar
@<TRIPOS>MOLECULE
*****
 29 33 0 0 0
SMALL
GASTEIGER

@<TRIPOS>ATOM
      1 C          63.7448   87.9108   15.0619 C.ar    1  UNL1        0.2076
      2 N          63.4372   88.3047   16.4761 N.ar    1  UNL1       -0.1277
      3 N          62.9497   87.0855   17.2013 N.ar    1  UNL1       -0.1271
      4 C          62.9561   85.9380   16.2352 C.ar    1  UNL1        0.1865
      5 C          62.5779   84.4947   16.3887 C.ar    1  UNL1        0.0422
      6 C          62.6912   83.5612   15.2199 C.ar    1  UNL1        0.0241
      7 C          63.1826   84.0713   13.8977 C.ar    1  UNL1        0.1015
      8 N          63.5608   85.5147   13.7442 N.ar    1  UNL1       -0.1625
      9 N          63.4475   86.4481   14.9130 N.ar    1  UNL1       -0.1915
     10 C          63.2959   83.1380   12.7289 C.ar    1  UNL1        0.0194
     11 C          64.0862   83.5425   11.5199 C.ar    1  UNL1        0.0016
     12 C          64.1994   82.6091   10.3511 C.ar    1  UNL1        0.0000
     13 C          63.5224   81.2713   10.3914 C.ar    1  UNL1        0.0000
     14 C          62.7321   80.8667   11.6004 C.ar    1  UNL1        0.0000
     15 C          62.6188   81.8001   12.7691 C.ar    1  UNL1        0.0016
     16 C          64.2595   88.8199   13.9854 C.3     1  UNL1        0.2721
     17 O          63.7928   90.2439   13.9198 O.3     1  UNL1       -0.4671
     18 C          66.0092   93.8877   10.5942 C.ar    1  UNL1        0.1402
     19 C          65.0293   92.7679   10.4055 C.ar    1  UNL1        0.0371
     20 C          64.6171   91.9266   11.5769 C.ar    1  UNL1        0.0076
     21 C          65.1848   92.2051   12.9371 C.ar    1  UNL1        0.0519
     22 C          64.7726   91.3638   14.1085 C.ar    1  UNL1        0.1421
     23 C          65.3403   91.6424   15.4687 C.ar    1  UNL1        0.0576
     24 C          66.3203   92.7623   15.6575 C.ar    1  UNL1        0.1019
     25 N          66.7325   93.6036   14.4860 N.ar    1  UNL1       -0.2435
     26 C          66.1647   93.3250   13.1258 C.ar    1  UNL1        0.0872
     27 C          66.5769   94.1663   11.9544 C.ar    1  UNL1        0.0561
     28 C          67.8194   94.6357    8.8873 C.3     1  UNL1        0.2525
     29 O          66.4214   94.7290    9.4227 O.3     1  UNL1       -0.4714
@<TRIPOS>BOND
     1    28    29    1
     2    29    18    1
     3    18    19   ar
     4    19    20   ar
     5    20    21   ar
     6    21    22   ar
     7    22    17    1
     8    17    16    1
     9    16     1    1
    10     1     2   ar
    11     2     3   ar
    12     3     4   ar
    13     4     5   ar
    14     5     6   ar
    15     6     7   ar
    16     7    10    1
    17    10    11   ar
    18    11    12   ar
    19    12    13   ar
    20    13    14   ar
    21    14    15   ar
    22     7     8   ar
    23     8     9   ar
    24    22    23   ar
    25    23    24   ar
    26    24    25   ar
    27    25    26   ar
    28    26    27   ar
    29    27    18   ar
    30    26    21   ar
    31     9     1   ar
    32     9     4   ar
    33    15    10   ar
