@<TRIPOS>MOLECULE
*****
 65 73 0 0 0
SMALL
GASTEIGER

@<TRIPOS>ATOM
      1 N          65.7477   89.9523   13.9745 N.3     1  UNL1       -0.1862
      2 C          66.1760   88.7788   14.8048 C.3     1  UNL1        0.1775
      3 C          65.3701   87.5138   14.7875 C.2     1  UNL1        0.2452
      4 O          65.7984   86.3402   15.6178 O.2     1  UNL1       -0.2732
      5 N          64.1359   87.4223   13.9401 N.am    1  UNL1       -0.2541
      6 C          63.3299   86.1573   13.9228 C.3     1  UNL1        0.1577
      7 C          62.0957   86.0659   13.0753 C.2     1  UNL1        0.2445
      8 O          61.2898   84.8009   13.0581 O.2     1  UNL1       -0.2731
      9 N          61.6673   87.2394   12.2450 N.am    1  UNL1       -0.2705
     10 C          62.4733   88.5044   12.2623 C.3     1  UNL1        0.1359
     11 C          63.7076   88.5958   13.1098 C.3     1  UNL1        0.1908
     12 N          64.5135   89.8608   13.1270 N.am    1  UNL1       -0.1863
     13 C          64.0851   91.0344   12.2967 C.2     1  UNL1        0.3191
     14 O          62.8509   90.9429   11.4493 O.2     1  UNL1       -0.2512
     15 N          64.8910   92.2994   12.3140 N.am    1  UNL1       -0.2836
     16 H          65.7011   92.3594   12.8702 H       1  UNL1        0.1513
     17 C          66.5536   91.2173   13.9918 C.3     1  UNL1        0.1188
     18 C          67.0343   92.7388   16.0421 C.2     1  UNL1       -0.0034
     19 C          67.3903   91.5572   15.1894 C.2     1  UNL1       -0.0071
     20 C          63.7582   84.9838   14.7531 C.3     1  UNL1        0.0556
     21 C          63.4543   83.5888   14.2931 C.ar    1  UNL1       -0.0198
     22 C          62.3014   82.8369   14.8892 C.ar    1  UNL1       -0.0011
     23 C          61.9975   81.4419   14.4292 C.ar    1  UNL1        0.0363
     24 C          62.8466   80.7988   13.3731 C.ar    1  UNL1        0.1337
     25 O          62.5427   79.4038   12.9131 O.3     1  UNL1       -0.5055
     26 C          63.9995   81.5507   12.7769 C.ar    1  UNL1        0.0363
     27 C          64.3034   82.9457   13.2369 C.ar    1  UNL1       -0.0011
     28 H          61.8225   78.9341   13.2855 H       1  UNL1        0.2922
     29 C          60.4331   87.1480   11.3976 C.3     1  UNL1        0.1217
     30 C          60.5439   87.2037    9.9026 C.ar    1  UNL1        0.0135
     31 C          60.9941   85.9941    9.1383 C.ar    1  UNL1       -0.0012
     32 C          61.1049   86.0498    7.6435 C.ar    1  UNL1       -0.0002
     33 C          60.7656   87.3152    6.9130 C.ar    1  UNL1        0.0016
     34 C          60.3154   88.5248    7.6773 C.ar    1  UNL1        0.0214
     35 C          59.9162   89.9010    7.2339 C.ar    1  UNL1        0.0722
     36 C          59.5586   90.6958    8.4547 C.ar    1  UNL1        0.0805
     37 N          59.7368   89.8109    9.6525 N.ar    1  UNL1       -0.3241
     38 C          59.4906   90.1994   11.0803 C.3     1  UNL1        0.1305
     39 C          60.2046   88.4691    9.1721 C.ar    1  UNL1        0.0577
     40 C          59.8807   90.3956    5.8181 C.2     1  UNL1        0.2510
     41 O          58.7091   90.0712    4.9395 O.2     1  UNL1       -0.2698
     42 N          61.0169   91.2145    5.2811 N.am    1  UNL1       -0.2791
     43 H          61.7859   91.4274    5.8578 H       1  UNL1        0.1552
     44 C          60.9815   91.7091    3.8655 C.ar    1  UNL1        0.0701
     45 C          62.1757   91.5249    2.9767 C.ar    1  UNL1        0.0191
     46 C          62.1404   92.0194    1.5610 C.ar    1  UNL1        0.0356
     47 C          60.9109   92.6982    1.0341 C.ar    1  UNL1        0.1318
     48 N          59.7167   92.8824    1.9229 N.ar    1  UNL1       -0.2279
     49 C          59.7520   92.3879    3.3386 C.ar    1  UNL1        0.1149
     50 N          60.8755   93.1928   -0.3815 N.pl3   1  UNL1       -0.2918
     51 C          62.0487   93.2898   -1.3113 C.3     1  UNL1        0.0936
     52 C          61.5589   93.8342   -2.6204 C.3     1  UNL1        0.0375
     53 C          61.9813   94.2305   -4.0040 C.3     1  UNL1        0.0204
     54 C          60.7664   94.7150   -4.7386 C.3     1  UNL1        0.0722
     55 N          59.5933   94.6181   -3.8089 N.3     1  UNL1       -0.2711
     56 C          58.1788   94.9987   -4.1316 C.3     1  UNL1        0.0896
     57 C          60.0830   94.0737   -2.4997 C.3     1  UNL1        0.0790
     58 C          59.6608   93.6773   -1.1161 C.3     1  UNL1        0.1081
     59 C          64.4627   93.4729   11.4837 C.3     1  UNL1        0.1177
     60 C          65.4588   94.1782   10.6117 C.ar    1  UNL1       -0.0025
     61 C          65.3276   95.6516   10.3634 C.ar    1  UNL1       -0.0026
     62 C          66.3237   96.3569    9.4915 C.ar    1  UNL1       -0.0003
     63 C          67.4511   95.5888    8.8678 C.ar    1  UNL1       -0.0000
     64 C          67.5823   94.1153    9.1161 C.ar    1  UNL1       -0.0003
     65 C          66.5862   93.4100    9.9881 C.ar    1  UNL1       -0.0026
@<TRIPOS>BOND
     1    18    19    2
     2    19    17    1
     3    17     1    1
     4     1     2    1
     5     2     3    1
     6     3     4    2
     7     3     5   am
     8     5     6    1
     9     6    20    1
    10    20    21    1
    11    21    22   ar
    12    22    23   ar
    13    23    24   ar
    14    24    25    1
    15    24    26   ar
    16    26    27   ar
    17     6     7    1
    18     7     8    2
    19     7     9   am
    20     9    29    1
    21    29    30    1
    22    30    31   ar
    23    31    32   ar
    24    32    33   ar
    25    33    34   ar
    26    34    35   ar
    27    35    40    1
    28    40    41    2
    29    40    42   am
    30    42    44    1
    31    44    45   ar
    32    45    46   ar
    33    46    47   ar
    34    47    50    1
    35    50    51    1
    36    51    52    1
    37    52    53    1
    38    53    54    1
    39    54    55    1
    40    55    56    1
    41    55    57    1
    42    57    58    1
    43    47    48   ar
    44    48    49   ar
    45    35    36   ar
    46    36    37   ar
    47    37    38    1
    48    37    39   ar
    49     9    10    1
    50    11    10    1
    51    11    12    1
    52    12    13   am
    53    13    14    2
    54    13    15   am
    55    15    59    1
    56    59    60    1
    57    60    61   ar
    58    61    62   ar
    59    62    63   ar
    60    63    64   ar
    61    64    65   ar
    62    12     1    1
    63    65    60   ar
    64    11     5    1
    65    27    21   ar
    66    39    30   ar
    67    39    34   ar
    68    49    44   ar
    69    58    50    1
    70    57    52    1
    71    25    28    1
    72    42    43    1
    73    15    16    1
@<TRIPOS>MOLECULE
*****
 65 73 0 0 0
SMALL
GASTEIGER

@<TRIPOS>ATOM
      1 N          58.1690   94.7456   -5.9332 N.3     1  UNL1       -0.1862
      2 C          59.3475   94.7593   -6.8611 C.3     1  UNL1        0.1775
      3 C          60.7120   95.0940   -6.3356 C.2     1  UNL1        0.2452
      4 O          61.8905   95.1076   -7.2635 O.2     1  UNL1       -0.2732
      5 N          60.8980   95.4150   -4.8822 N.am    1  UNL1       -0.2541
      6 C          62.2625   95.7497   -4.3567 C.3     1  UNL1        0.1577
      7 C          62.4485   96.0707   -2.9033 C.2     1  UNL1        0.2445
      8 O          63.8130   96.4054   -2.3778 O.2     1  UNL1       -0.2731
      9 N          61.2700   96.0571   -1.9754 N.am    1  UNL1       -0.2705
     10 C          59.9055   95.7224   -2.5009 C.3     1  UNL1        0.1359
     11 C          59.7195   95.4014   -3.9544 C.3     1  UNL1        0.1908
     12 N          58.3550   95.0667   -4.4799 N.am    1  UNL1       -0.1863
     13 C          57.1765   95.0530   -3.5519 C.2     1  UNL1        0.3191
     14 O          57.3625   95.3741   -2.0986 O.2     1  UNL1       -0.2512
     15 N          55.8120   94.7184   -4.0774 N.am    1  UNL1       -0.2836
     16 H          55.6900   94.5076   -5.0314 H       1  UNL1        0.1513
     17 C          56.8045   94.4109   -6.4587 C.3     1  UNL1        0.1188
     18 C          56.1875   91.9084   -6.1329 C.2     1  UNL1       -0.0034
     19 C          56.5358   93.0533   -7.0372 C.2     1  UNL1       -0.0071
     20 C          63.4410   95.7634   -5.2845 C.3     1  UNL1        0.0556
     21 C          64.0856   94.4733   -5.6973 C.ar    1  UNL1       -0.0198
     22 C          65.2302   94.4834   -6.6666 C.ar    1  UNL1       -0.0011
     23 C          65.8748   93.1933   -7.0794 C.ar    1  UNL1        0.0363
     24 C          65.3748   91.8933   -6.5227 C.ar    1  UNL1        0.1337
     25 O          66.0194   90.6033   -6.9354 O.3     1  UNL1       -0.5055
     26 C          64.2301   91.8833   -5.5533 C.ar    1  UNL1        0.0363
     27 C          63.5855   93.1733   -5.1405 C.ar    1  UNL1       -0.0011
     28 H          66.7344   90.6096   -7.5410 H       1  UNL1        0.2922
     29 C          61.4560   96.3781   -0.5220 C.3     1  UNL1        0.1217
     30 C          62.1647   95.4077    0.3757 C.ar    1  UNL1        0.0135
     31 C          63.6600   95.2980    0.3298 C.ar    1  UNL1       -0.0012
     32 C          64.3688   94.3276    1.2275 C.ar    1  UNL1       -0.0002
     33 C          63.5823   93.4669    2.1711 C.ar    1  UNL1        0.0016
     34 C          62.0870   93.5765    2.2170 C.ar    1  UNL1        0.0214
     35 C          61.0532   92.8642    3.0378 C.ar    1  UNL1        0.0722
     36 C          59.7054   93.3944    2.6474 C.ar    1  UNL1        0.0805
     37 N          59.9063   94.4343    1.5853 N.ar    1  UNL1       -0.3241
     38 C          58.8252   95.2233    0.9081 C.3     1  UNL1        0.1305
     39 C          61.3783   94.5469    1.3193 C.ar    1  UNL1        0.0577
     40 C          61.3202   91.8072    4.0682 C.2     1  UNL1        0.2510
     41 O          62.6025   91.0299    4.0303 O.2     1  UNL1       -0.2698
     42 N          60.3049   91.5276    5.1363 N.am    1  UNL1       -0.2791
     43 H          59.4633   92.0378    5.1612 H       1  UNL1        0.1552
     44 C          60.5718   90.4707    6.1667 C.ar    1  UNL1        0.0701
     45 C          59.9570   89.1102    6.0221 C.ar    1  UNL1        0.0191
     46 C          60.2238   88.0532    7.0524 C.ar    1  UNL1        0.0356
     47 C          61.1056   88.3567    8.2273 C.ar    1  UNL1        0.1318
     48 N          61.7205   89.7173    8.3718 N.ar    1  UNL1       -0.2279
     49 C          61.4536   90.7742    7.3415 C.ar    1  UNL1        0.1149
     50 N          61.3726   87.2998    9.2576 N.pl3   1  UNL1       -0.2918
     51 C          60.8989   87.3162   10.6808 C.3     1  UNL1        0.0936
     52 C          61.3937   86.0674   11.3484 C.3     1  UNL1        0.0375
     53 C          61.4067   85.3057   12.6406 C.3     1  UNL1        0.0204
     54 C          62.1943   84.0467   12.4286 C.3     1  UNL1        0.0722
     55 N          62.6679   84.0303   11.0055 N.3     1  UNL1       -0.2711
     56 C          63.4917   82.9542   10.3628 C.3     1  UNL1        0.0896
     57 C          62.1732   85.2792   10.3378 C.3     1  UNL1        0.0790
     58 C          62.1601   86.0408    9.0457 C.3     1  UNL1        0.1081
     59 C          54.6335   94.7047   -3.1496 C.3     1  UNL1        0.1177
     60 C          53.3718   95.4215   -3.5292 C.ar    1  UNL1       -0.0025
     61 C          52.2275   95.4891   -2.5617 C.ar    1  UNL1       -0.0026
     62 C          50.9657   96.2059   -2.9413 C.ar    1  UNL1       -0.0003
     63 C          50.8482   96.8552   -4.2884 C.ar    1  UNL1       -0.0000
     64 C          51.9925   96.7877   -5.2559 C.ar    1  UNL1       -0.0003
     65 C          53.2543   96.0708   -4.8763 C.ar    1  UNL1       -0.0026
@<TRIPOS>BOND
     1    18    19    2
     2    19    17    1
     3    17     1    1
     4     1     2    1
     5     2     3    1
     6     3     4    2
     7     3     5   am
     8     5     6    1
     9     6    20    1
    10    20    21    1
    11    21    22   ar
    12    22    23   ar
    13    23    24   ar
    14    24    25    1
    15    24    26   ar
    16    26    27   ar
    17     6     7    1
    18     7     8    2
    19     7     9   am
    20     9    29    1
    21    29    30    1
    22    30    31   ar
    23    31    32   ar
    24    32    33   ar
    25    33    34   ar
    26    34    35   ar
    27    35    40    1
    28    40    41    2
    29    40    42   am
    30    42    44    1
    31    44    45   ar
    32    45    46   ar
    33    46    47   ar
    34    47    50    1
    35    50    51    1
    36    51    52    1
    37    52    53    1
    38    53    54    1
    39    54    55    1
    40    55    56    1
    41    55    57    1
    42    57    58    1
    43    47    48   ar
    44    48    49   ar
    45    35    36   ar
    46    36    37   ar
    47    37    38    1
    48    37    39   ar
    49     9    10    1
    50    11    10    1
    51    11    12    1
    52    12    13   am
    53    13    14    2
    54    13    15   am
    55    15    59    1
    56    59    60    1
    57    60    61   ar
    58    61    62   ar
    59    62    63   ar
    60    63    64   ar
    61    64    65   ar
    62    12     1    1
    63    65    60   ar
    64    11     5    1
    65    27    21   ar
    66    39    30   ar
    67    39    34   ar
    68    49    44   ar
    69    58    50    1
    70    57    52    1
    71    25    28    1
    72    42    43    1
    73    15    16    1
@<TRIPOS>MOLECULE
*****
 65 73 0 0 0
SMALL
GASTEIGER

@<TRIPOS>ATOM
      1 N          64.6919   83.3408   13.2893 N.3     1  UNL1       -0.1862
      2 C          65.3688   84.2019   14.3141 C.3     1  UNL1        0.1775
      3 C          64.9678   85.6390   14.4692 C.2     1  UNL1        0.2452
      4 O          65.6448   86.5001   15.4941 O.2     1  UNL1       -0.2732
      5 N          63.8899   86.2149   13.5995 N.am    1  UNL1       -0.2541
      6 C          63.4889   87.6520   13.7547 C.3     1  UNL1        0.1577
      7 C          62.4111   88.2280   12.8850 C.2     1  UNL1        0.2445
      8 O          62.0101   89.6650   13.0401 O.2     1  UNL1       -0.2731
      9 N          61.7341   87.3668   11.8601 N.am    1  UNL1       -0.2705
     10 C          62.1351   85.9298   11.7050 C.3     1  UNL1        0.1359
     11 C          63.2130   85.3538   12.5748 C.3     1  UNL1        0.1908
     12 N          63.6140   83.9168   12.4197 N.am    1  UNL1       -0.1863
     13 C          62.9370   83.0556   11.3948 C.2     1  UNL1        0.3191
     14 O          61.8592   83.6316   10.5251 O.2     1  UNL1       -0.2512
     15 N          63.3380   81.6186   11.2397 N.am    1  UNL1       -0.2836
     16 H          64.0455   81.2406   11.8105 H       1  UNL1        0.1513
     17 C          65.0929   81.9038   13.1342 C.3     1  UNL1        0.1188
     18 C          62.9946   80.8440   14.2405 C.2     1  UNL1       -0.0034
     19 C          64.4769   80.8544   14.0113 C.2     1  UNL1       -0.0071
     20 C          64.1658   88.5131   14.7794 C.3     1  UNL1        0.0556
     21 C          64.8153   89.8006   14.3664 C.ar    1  UNL1       -0.0198
     22 C          65.8781   90.4148   15.2284 C.ar    1  UNL1       -0.0011
     23 C          66.5275   91.7023   14.8154 C.ar    1  UNL1        0.0363
     24 C          66.1142   92.3756   13.5403 C.ar    1  UNL1        0.1337
     25 O          66.7636   93.6630   13.1273 O.3     1  UNL1       -0.5055
     26 C          65.0513   91.7613   12.6782 C.ar    1  UNL1        0.0363
     27 C          64.4019   90.4738   13.0913 C.ar    1  UNL1       -0.0011
     28 H          67.4275   94.0467   13.6658 H       1  UNL1        0.2922
     29 C          60.6562   87.9428   10.9904 C.3     1  UNL1        0.1217
     30 C          60.9934   88.9945    9.9754 C.ar    1  UNL1        0.0135
     31 C          62.0400   90.0244   10.2819 C.ar    1  UNL1       -0.0012
     32 C          62.3772   91.0761    9.2669 C.ar    1  UNL1       -0.0002
     33 C          61.6678   91.0979    7.9455 C.ar    1  UNL1        0.0016
     34 C          60.6212   90.0681    7.6390 C.ar    1  UNL1        0.0214
     35 C          59.7612   89.8395    6.4315 C.ar    1  UNL1        0.0722
     36 C          58.8924   88.6466    6.7002 C.ar    1  UNL1        0.0805
     37 N          59.2156   88.1379    8.0737 N.ar    1  UNL1       -0.3241
     38 C          58.5816   86.9578    8.7486 C.3     1  UNL1        0.1305
     39 C          60.2840   89.0164    8.6540 C.ar    1  UNL1        0.0577
     40 C          59.7686   90.6600    5.1757 C.2     1  UNL1        0.2510
     41 O          58.4736   91.0967    4.5575 O.2     1  UNL1       -0.2698
     42 N          61.0710   91.0437    4.5382 N.am    1  UNL1       -0.2791
     43 H          61.9210   90.7570    4.9440 H       1  UNL1        0.1552
     44 C          61.0785   91.8641    3.2825 C.ar    1  UNL1        0.0701
     45 C          62.2210   91.7477    2.3175 C.ar    1  UNL1        0.0191
     46 C          62.2286   92.5680    1.0617 C.ar    1  UNL1        0.0356
     47 C          61.0937   93.5048    0.7710 C.ar    1  UNL1        0.1318
     48 N          59.9512   93.6212    1.7360 N.ar    1  UNL1       -0.2279
     49 C          59.9437   92.8008    2.9918 C.ar    1  UNL1        0.1149
     50 N          61.1012   94.3252   -0.4847 N.pl3   1  UNL1       -0.2918
     51 C          59.8968   94.9001   -1.1696 C.3     1  UNL1        0.0936
     52 C          60.3657   95.6449   -2.3842 C.3     1  UNL1        0.0375
     53 C          59.9112   96.4605   -3.5582 C.3     1  UNL1        0.0204
     54 C          61.1245   96.8501   -4.3495 C.3     1  UNL1        0.0722
     55 N          62.3289   96.2753   -3.6647 N.3     1  UNL1       -0.2711
     56 C          63.7522   96.4199   -4.1153 C.3     1  UNL1        0.0896
     57 C          61.8600   95.5304   -2.4500 C.3     1  UNL1        0.0790
     58 C          62.3144   94.7148   -1.2761 C.3     1  UNL1        0.1081
     59 C          62.6611   80.7575   10.2149 C.3     1  UNL1        0.1177
     60 C          63.0095   79.3023   10.1097 C.ar    1  UNL1       -0.0025
     61 C          62.4275   78.3196   11.0821 C.ar    1  UNL1       -0.0026
     62 C          62.7759   76.8644   10.9769 C.ar    1  UNL1       -0.0003
     63 C          63.7063   76.3919    9.8995 C.ar    1  UNL1       -0.0000
     64 C          64.2885   77.3746    8.9271 C.ar    1  UNL1       -0.0003
     65 C          63.9400   78.8298    9.0322 C.ar    1  UNL1       -0.0026
@<TRIPOS>BOND
     1    18    19    2
     2    19    17    1
     3    17     1    1
     4     1     2    1
     5     2     3    1
     6     3     4    2
     7     3     5   am
     8     5     6    1
     9     6    20    1
    10    20    21    1
    11    21    22   ar
    12    22    23   ar
    13    23    24   ar
    14    24    25    1
    15    24    26   ar
    16    26    27   ar
    17     6     7    1
    18     7     8    2
    19     7     9   am
    20     9    29    1
    21    29    30    1
    22    30    31   ar
    23    31    32   ar
    24    32    33   ar
    25    33    34   ar
    26    34    35   ar
    27    35    40    1
    28    40    41    2
    29    40    42   am
    30    42    44    1
    31    44    45   ar
    32    45    46   ar
    33    46    47   ar
    34    47    50    1
    35    50    51    1
    36    51    52    1
    37    52    53    1
    38    53    54    1
    39    54    55    1
    40    55    56    1
    41    55    57    1
    42    57    58    1
    43    47    48   ar
    44    48    49   ar
    45    35    36   ar
    46    36    37   ar
    47    37    38    1
    48    37    39   ar
    49     9    10    1
    50    11    10    1
    51    11    12    1
    52    12    13   am
    53    13    14    2
    54    13    15   am
    55    15    59    1
    56    59    60    1
    57    60    61   ar
    58    61    62   ar
    59    62    63   ar
    60    63    64   ar
    61    64    65   ar
    62    12     1    1
    63    65    60   ar
    64    11     5    1
    65    27    21   ar
    66    39    30   ar
    67    39    34   ar
    68    49    44   ar
    69    58    50    1
    70    57    52    1
    71    25    28    1
    72    42    43    1
    73    15    16    1
