@<TRIPOS>MOLECULE
*****
 33 35 0 0 0
SMALL
GASTEIGER

@<TRIPOS>ATOM
      1 C          64.6397   89.9327   13.6163 C.ar    1  UNL1        0.0594
      2 C          65.0886   89.1001   14.7806 C.ar    1  UNL1        0.0164
      3 C          64.6656   87.6647   14.8835 C.ar    1  UNL1        0.0181
      4 C          63.7939   87.0617   13.8221 C.ar    1  UNL1        0.0758
      5 C          63.3450   87.8942   12.6579 C.ar    1  UNL1        0.1546
      6 F          62.4732   87.2912   11.5966 F       1  UNL1       -0.2028
      7 C          63.7679   89.3297   12.5550 C.ar    1  UNL1        0.0459
      8 N          63.3710   85.6263   13.9251 N.pl3   1  UNL1       -0.3025
      9 C          62.8394   85.1987   15.2611 C.3     1  UNL1        0.1096
     10 C          62.3411   83.8474   15.6805 C.3     1  UNL1        0.1092
     11 N          62.2513   82.5901   14.8675 N.3     1  UNL1       -0.2248
     12 N          62.6376   82.3733   13.4344 N.am    1  UNL1       -0.2182
     13 C          62.4242   80.9861   12.9054 C.2     1  UNL1        0.3060
     14 O          61.8572   79.9221   13.7979 O.2     1  UNL1       -0.2675
     15 C          63.2091   83.3605   12.4603 C.3     1  UNL1        0.1328
     16 C          63.5355   84.8082   12.6788 C.3     1  UNL1        0.1140
     17 H          61.2662   82.3289   14.9089 H       1  UNL1        0.1453
     18 C          62.7778   80.6627   11.4840 C.3     1  UNL1        0.3942
     19 F          62.7214   79.2435   11.0013 F       1  UNL1       -0.1880
     20 F          63.1879   81.7584   10.5453 F       1  UNL1       -0.1880
     21 C          65.7682   93.5075   12.6103 C.3     1  UNL1        0.2101
     22 C          65.3998   92.0993   12.2478 C.3     1  UNL1        0.1468
     23 N          65.0626   91.3681   13.5134 N.am    1  UNL1       -0.2212
     24 C          65.2227   92.3243   14.6580 C.2     1  UNL1        0.4088
     25 O          64.9880   92.0129   16.1063 O.2     1  UNL1       -0.2258
     26 O          65.6588   93.6465   14.0997 O.3     1  UNL1       -0.4345
     27 C          66.1747   94.5871   11.6515 C.3     1  UNL1        0.1358
     28 N          66.1810   94.3165   10.1761 N.am    1  UNL1       -0.2954
     29 H          65.3896   93.9204    9.7448 H       1  UNL1        0.1502
     30 C          67.3933   94.6493    9.3577 C.2     1  UNL1        0.2296
     31 S          67.3083   95.6894    8.2801 S.2     1  UNL1        0.0058
     32 C          68.8179   92.4771    9.3216 C.3     1  UNL1        0.2545
     33 O          68.6904   93.9422    9.6169 O.3     1  UNL1       -0.4543
@<TRIPOS>BOND
     1    32    33    1
     2    33    30    1
     3    30    31    2
     4    30    28    1
     5    28    27    1
     6    21    27    1
     7    21    22    1
     8    22    23    1
     9    23     1    1
    10     1     2   ar
    11     2     3   ar
    12     3     4   ar
    13     4     8    1
    14     8     9    1
    15     9    10    1
    16    10    11    1
    17    11    12    1
    18    12    13   am
    19    13    14    2
    20    13    18    1
    21    18    19    1
    22    18    20    1
    23    12    15    1
    24    15    16    1
    25     4     5   ar
    26     5     6    1
    27     5     7   ar
    28    23    24   am
    29    24    25    2
    30    24    26    1
    31    26    21    1
    32     7     1   ar
    33    16     8    1
    34    28    29    1
    35    11    17    1
@<TRIPOS>MOLECULE
*****
 33 35 0 0 0
SMALL
GASTEIGER

@<TRIPOS>ATOM
      1 C          64.4310   89.0651   14.2643 C.ar    1  UNL1        0.0594
      2 C          64.7908   88.0388   15.2974 C.ar    1  UNL1        0.0164
      3 C          64.4271   86.5995   15.0831 C.ar    1  UNL1        0.0181
      4 C          63.7035   86.1864   13.8358 C.ar    1  UNL1        0.0758
      5 C          63.3437   87.2126   12.8027 C.ar    1  UNL1        0.1546
      6 F          62.6201   86.7995   11.5554 F       1  UNL1       -0.2028
      7 C          63.7074   88.6520   13.0170 C.ar    1  UNL1        0.0459
      8 N          63.3398   84.7470   13.6216 N.pl3   1  UNL1       -0.3025
      9 C          62.7070   84.0545   14.7923 C.3     1  UNL1        0.1096
     10 C          62.2351   82.6344   14.8955 C.3     1  UNL1        0.1092
     11 N          62.2794   81.5561   13.8539 N.3     1  UNL1       -0.2248
     12 N          62.8066   81.6314   12.4515 N.am    1  UNL1       -0.2182
     13 C          62.7076   80.3673   11.6502 C.2     1  UNL1        0.3060
     14 O          62.1101   79.1356   12.2633 O.2     1  UNL1       -0.2675
     15 C          63.4196   82.8038   11.7446 C.3     1  UNL1        0.1328
     16 C          63.6569   84.1903   12.2654 C.3     1  UNL1        0.1140
     17 H          61.3079   81.2647   13.7463 H       1  UNL1        0.1453
     18 C          63.2061   80.3349   10.2358 C.3     1  UNL1        0.3942
     19 F          64.1680   81.3810    9.7555 F       1  UNL1       -0.1880
     20 F          62.7427   79.2565    9.3018 F       1  UNL1       -0.1880
     21 C          65.7512   92.7139   14.1718 C.3     1  UNL1        0.2101
     22 C          65.6506   91.3415   13.5747 C.3     1  UNL1        0.1468
     23 N          64.7947   90.5045   14.4785 N.am    1  UNL1       -0.2212
     24 C          64.3664   91.3595   15.6341 C.2     1  UNL1        0.4088
     25 O          63.4993   90.9253   16.7784 O.2     1  UNL1       -0.2258
     26 O          64.9576   92.7250   15.4445 O.3     1  UNL1       -0.4345
     27 C          66.5120   93.8718   13.5970 C.3     1  UNL1        0.1358
     28 N          66.0852   94.4760   12.2920 N.am    1  UNL1       -0.2954
     29 H          65.3474   95.1274   12.2690 H       1  UNL1        0.1502
     30 C          66.7827   94.0877   11.0220 C.2     1  UNL1        0.2296
     31 S          66.8516   95.0556    9.8781 S.2     1  UNL1        0.0058
     32 C          68.2251   92.3921    9.6826 C.3     1  UNL1        0.2545
     33 O          67.4112   92.7317   10.8960 O.3     1  UNL1       -0.4543
@<TRIPOS>BOND
     1    32    33    1
     2    33    30    1
     3    30    31    2
     4    30    28    1
     5    28    27    1
     6    21    27    1
     7    21    22    1
     8    22    23    1
     9    23     1    1
    10     1     2   ar
    11     2     3   ar
    12     3     4   ar
    13     4     8    1
    14     8     9    1
    15     9    10    1
    16    10    11    1
    17    11    12    1
    18    12    13   am
    19    13    14    2
    20    13    18    1
    21    18    19    1
    22    18    20    1
    23    12    15    1
    24    15    16    1
    25     4     5   ar
    26     5     6    1
    27     5     7   ar
    28    23    24   am
    29    24    25    2
    30    24    26    1
    31    26    21    1
    32     7     1   ar
    33    16     8    1
    34    28    29    1
    35    11    17    1
@<TRIPOS>MOLECULE
*****
 33 35 0 0 0
SMALL
GASTEIGER

@<TRIPOS>ATOM
      1 C          63.7673   87.7520   13.5354 C.ar    1  UNL1        0.0594
      2 C          63.0101   87.2666   12.3348 C.ar    1  UNL1        0.0164
      3 C          62.8010   85.7963   12.1241 C.ar    1  UNL1        0.0181
      4 C          63.3490   84.8113   13.1139 C.ar    1  UNL1        0.0758
      5 C          64.1061   85.2967   14.3144 C.ar    1  UNL1        0.1546
      6 F          64.6541   84.3117   15.3041 F       1  UNL1       -0.2028
      7 C          64.3152   86.7671   14.5251 C.ar    1  UNL1        0.0459
      8 N          63.1399   83.3410   12.9031 N.pl3   1  UNL1       -0.3025
      9 C          62.8442   82.5422   14.1378 C.3     1  UNL1        0.1096
     10 C          62.5897   81.0689   14.2599 C.3     1  UNL1        0.1092
     11 N          62.5680   80.0308   13.1774 N.3     1  UNL1       -0.2248
     12 N          62.7953   80.2094   11.7055 N.am    1  UNL1       -0.2182
     13 C          62.7055   78.9622   10.8771 C.2     1  UNL1        0.3060
     14 O          62.4046   77.6468   11.5321 O.2     1  UNL1       -0.2675
     15 C          63.1006   81.4703   10.9526 C.3     1  UNL1        0.1328
     16 C          63.2539   82.8640   11.4856 C.3     1  UNL1        0.1140
     17 H          61.6403   79.6120   13.2437 H       1  UNL1        0.1453
     18 C          62.9166   79.0304    9.3935 C.3     1  UNL1        0.3942
     19 F          64.1641   78.4600    8.7865 F       1  UNL1       -0.1880
     20 F          61.8802   79.6691    8.5171 F       1  UNL1       -0.1880
     21 C          64.7264   91.3382   14.6684 C.3     1  UNL1        0.2101
     22 C          64.7923   89.8493   14.8376 C.3     1  UNL1        0.1468
     23 N          63.9764   89.2223   13.7461 N.am    1  UNL1       -0.2212
     24 C          63.4064   90.3238   12.9024 C.2     1  UNL1        0.4088
     25 O          62.5272   90.1483   11.6999 O.2     1  UNL1       -0.2258
     26 O          63.8700   91.6315   13.4725 O.3     1  UNL1       -0.4345
     27 C          65.3991   92.3554   15.5419 C.3     1  UNL1        0.1358
     28 N          66.3901   93.3138   14.9508 N.am    1  UNL1       -0.2954
     29 H          66.1388   94.2545   14.8057 H       1  UNL1        0.1502
     30 C          67.7640   92.8388   14.5808 C.2     1  UNL1        0.2296
     31 S          68.8261   92.7225   15.6336 S.2     1  UNL1        0.0058
     32 C          66.9967   92.5338   12.1176 C.3     1  UNL1        0.2545
     33 O          68.0757   92.4801   13.1582 O.3     1  UNL1       -0.4543
@<TRIPOS>BOND
     1    32    33    1
     2    33    30    1
     3    30    31    2
     4    30    28    1
     5    28    27    1
     6    21    27    1
     7    21    22    1
     8    22    23    1
     9    23     1    1
    10     1     2   ar
    11     2     3   ar
    12     3     4   ar
    13     4     8    1
    14     8     9    1
    15     9    10    1
    16    10    11    1
    17    11    12    1
    18    12    13   am
    19    13    14    2
    20    13    18    1
    21    18    19    1
    22    18    20    1
    23    12    15    1
    24    15    16    1
    25     4     5   ar
    26     5     6    1
    27     5     7   ar
    28    23    24   am
    29    24    25    2
    30    24    26    1
    31    26    21    1
    32     7     1   ar
    33    16     8    1
    34    28    29    1
    35    11    17    1
@<TRIPOS>MOLECULE
*****
 33 35 0 0 0
SMALL
GASTEIGER

@<TRIPOS>ATOM
      1 C          60.5200   91.7108    4.0558 C.ar    1  UNL1        0.0594
      2 C          61.9525   91.3285    3.8282 C.ar    1  UNL1        0.0164
      3 C          62.7864   92.0956    2.8453 C.ar    1  UNL1        0.0181
      4 C          62.1879   93.2451    2.0900 C.ar    1  UNL1        0.0758
      5 C          60.7554   93.6274    2.3176 C.ar    1  UNL1        0.1546
      6 F          60.1569   94.7768    1.5623 F       1  UNL1       -0.2028
      7 C          59.9214   92.8603    3.3005 C.ar    1  UNL1        0.0459
      8 N          63.0218   94.0121    1.1071 N.pl3   1  UNL1       -0.3025
      9 C          63.9608   95.0216    1.6984 C.3     1  UNL1        0.1096
     10 C          64.9164   95.9366    0.9915 C.3     1  UNL1        0.1092
     11 N          65.1691   96.0681   -0.4811 N.3     1  UNL1       -0.2248
     12 N          64.5287   95.3172   -1.6107 N.am    1  UNL1       -0.2182
     13 C          65.0022   95.6825   -2.9863 C.2     1  UNL1        0.3060
     14 O          66.0520   96.7393   -3.1620 O.2     1  UNL1       -0.2675
     15 C          63.4773   94.2492   -1.5466 C.3     1  UNL1        0.1328
     16 C          62.8067   93.6685   -0.3370 C.3     1  UNL1        0.1140
     17 H          66.1671   95.8856   -0.5864 H       1  UNL1        0.1453
     18 C          64.4258   94.9909   -4.1862 C.3     1  UNL1        0.3942
     19 F          65.0597   93.7337   -4.7037 F       1  UNL1       -0.1880
     20 F          63.2157   95.5566   -4.8685 F       1  UNL1       -0.1880
     21 C          59.0075   89.3703    6.7576 C.3     1  UNL1        0.2101
     22 C          60.1743   89.8570    5.9503 C.3     1  UNL1        0.1468
     23 N          59.6861   90.9438    5.0387 N.am    1  UNL1       -0.2212
     24 C          58.2177   91.1287    5.2827 C.2     1  UNL1        0.4088
     25 O          57.3254   92.1131    4.5866 O.2     1  UNL1       -0.2258
     26 O          57.7983   90.1562    6.3450 O.3     1  UNL1       -0.4345
     27 C          59.0436   88.2878    7.7953 C.3     1  UNL1        0.1358
     28 N          58.9961   86.8476    7.3786 N.am    1  UNL1       -0.2954
     29 H          58.1674   86.4705    7.0041 H       1  UNL1        0.1502
     30 C          60.2114   85.9818    7.5326 C.2     1  UNL1        0.2296
     31 S          61.1783   86.2385    8.6503 S.2     1  UNL1        0.0058
     32 C          61.8638   84.4959    6.1868 C.3     1  UNL1        0.2545
     33 O          60.4596   84.8595    6.5691 O.3     1  UNL1       -0.4543
@<TRIPOS>BOND
     1    32    33    1
     2    33    30    1
     3    30    31    2
     4    30    28    1
     5    28    27    1
     6    21    27    1
     7    21    22    1
     8    22    23    1
     9    23     1    1
    10     1     2   ar
    11     2     3   ar
    12     3     4   ar
    13     4     8    1
    14     8     9    1
    15     9    10    1
    16    10    11    1
    17    11    12    1
    18    12    13   am
    19    13    14    2
    20    13    18    1
    21    18    19    1
    22    18    20    1
    23    12    15    1
    24    15    16    1
    25     4     5   ar
    26     5     6    1
    27     5     7   ar
    28    23    24   am
    29    24    25    2
    30    24    26    1
    31    26    21    1
    32     7     1   ar
    33    16     8    1
    34    28    29    1
    35    11    17    1
@<TRIPOS>MOLECULE
*****
 33 35 0 0 0
SMALL
GASTEIGER

@<TRIPOS>ATOM
      1 C          63.5273   86.7046   14.0438 C.ar    1  UNL1        0.0594
      2 C          64.3656   87.3439   15.1109 C.ar    1  UNL1        0.0164
      3 C          64.8441   88.7557   14.9434 C.ar    1  UNL1        0.0181
      4 C          64.4842   89.5281   13.7090 C.ar    1  UNL1        0.0758
      5 C          63.6459   88.8889   12.6420 C.ar    1  UNL1        0.1546
      6 F          63.2861   89.6613   11.4075 F       1  UNL1       -0.2028
      7 C          63.1674   87.4770   12.8094 C.ar    1  UNL1        0.0459
      8 N          64.9627   90.9399   13.5416 N.pl3   1  UNL1       -0.3025
      9 C          65.5218   91.5879   14.7736 C.3     1  UNL1        0.1096
     10 C          66.0751   92.9731   14.9327 C.3     1  UNL1        0.1092
     11 N          66.2060   94.0522   13.8992 N.3     1  UNL1       -0.2248
     12 N          65.8160   94.0129   12.4513 N.am    1  UNL1       -0.2182
     13 C          66.0779   95.2677   11.6724 C.2     1  UNL1        0.3060
     14 O          66.6929   96.4563   12.3498 O.2     1  UNL1       -0.2675
     15 C          65.1987   92.8846   11.6793 C.3     1  UNL1        0.1328
     16 C          64.8190   91.5170   12.1647 C.3     1  UNL1        0.1140
     17 H          67.2007   94.2776   13.8898 H       1  UNL1        0.1453
     18 C          65.7247   95.3339   10.2160 C.3     1  UNL1        0.3942
     19 F          66.5421   94.5779    9.2109 F       1  UNL1       -0.1880
     20 F          64.5541   96.1562    9.7648 F       1  UNL1       -0.1880
     21 C          62.5302   82.9636   13.7685 C.3     1  UNL1        0.2101
     22 C          63.1197   84.2094   13.1763 C.3     1  UNL1        0.1468
     23 N          63.0489   85.2929   14.2113 N.am    1  UNL1       -0.2212
     24 C          62.4156   84.7168   15.4430 C.2     1  UNL1        0.4088
     25 O          62.1496   85.4513   16.7234 O.2     1  UNL1       -0.2258
     26 O          62.0950   83.2772   15.1692 O.3     1  UNL1       -0.4345
     27 C          62.3989   81.6372   13.0805 C.3     1  UNL1        0.1358
     28 N          63.5165   81.1237   12.2218 N.am    1  UNL1       -0.2954
     29 H          64.2538   80.6126   12.6272 H       1  UNL1        0.1502
     30 C          63.5106   81.3890   10.7455 C.2     1  UNL1        0.2296
     31 S          64.1350   82.6416   10.2061 S.2     1  UNL1        0.0058
     32 C          62.8447   78.9454   10.1667 C.3     1  UNL1        0.2545
     33 O          62.8804   80.4016    9.8086 O.3     1  UNL1       -0.4543
@<TRIPOS>BOND
     1    32    33    1
     2    33    30    1
     3    30    31    2
     4    30    28    1
     5    28    27    1
     6    21    27    1
     7    21    22    1
     8    22    23    1
     9    23     1    1
    10     1     2   ar
    11     2     3   ar
    12     3     4   ar
    13     4     8    1
    14     8     9    1
    15     9    10    1
    16    10    11    1
    17    11    12    1
    18    12    13   am
    19    13    14    2
    20    13    18    1
    21    18    19    1
    22    18    20    1
    23    12    15    1
    24    15    16    1
    25     4     5   ar
    26     5     6    1
    27     5     7   ar
    28    23    24   am
    29    24    25    2
    30    24    26    1
    31    26    21    1
    32     7     1   ar
    33    16     8    1
    34    28    29    1
    35    11    17    1
@<TRIPOS>MOLECULE
*****
 33 35 0 0 0
SMALL
GASTEIGER

@<TRIPOS>ATOM
      1 C          63.8193   87.8934   13.5905 C.ar    1  UNL1        0.0594
      2 C          63.0775   87.4007   12.3833 C.ar    1  UNL1        0.0164
      3 C          62.8649   85.9295   12.1825 C.ar    1  UNL1        0.0181
      4 C          63.3940   84.9509   13.1887 C.ar    1  UNL1        0.0758
      5 C          64.1358   85.4435   14.3957 C.ar    1  UNL1        0.1546
      6 F          64.6649   84.4650   15.4019 F       1  UNL1       -0.2028
      7 C          64.3484   86.9148   14.5967 C.ar    1  UNL1        0.0459
      8 N          63.1814   83.4797   12.9877 N.pl3   1  UNL1       -0.3025
      9 C          62.9197   82.6841   14.2322 C.3     1  UNL1        0.1096
     10 C          62.6705   81.2109   14.3651 C.3     1  UNL1        0.1092
     11 N          62.6215   80.1696   13.2867 N.3     1  UNL1       -0.2248
     12 N          62.8095   80.3442   11.8088 N.am    1  UNL1       -0.2182
     13 C          62.6994   79.0945   10.9866 C.2     1  UNL1        0.3060
     14 O          62.4178   77.7806   11.6531 O.2     1  UNL1       -0.2675
     15 C          63.0930   81.6033   11.0444 C.3     1  UNL1        0.1328
     16 C          63.2585   82.9987   11.5691 C.3     1  UNL1        0.1140
     17 H          61.6964   79.7498   13.3787 H       1  UNL1        0.1453
     18 C          62.8710   79.1587    9.4978 C.3     1  UNL1        0.3942
     19 F          61.8003   79.7726    8.6452 F       1  UNL1       -0.1880
     20 F          64.1132   78.6089    8.8616 F       1  UNL1       -0.1880
     21 C          64.7750   91.6535   13.4769 C.3     1  UNL1        0.2101
     22 C          64.8299   90.2698   12.9003 C.3     1  UNL1        0.1468
     23 N          64.0319   89.3645   13.7913 N.am    1  UNL1       -0.2212
     24 C          63.4840   90.1887   14.9185 C.2     1  UNL1        0.4088
     25 O          62.6272   89.6865   16.0425 O.2     1  UNL1       -0.2258
     26 O          63.9433   91.6034   14.7240 O.3     1  UNL1       -0.4345
     27 C          65.4360   92.8732   12.9063 C.3     1  UNL1        0.1358
     28 N          66.4210   92.7364   11.7833 N.am    1  UNL1       -0.2954
     29 H          67.0121   91.9503   11.7399 H       1  UNL1        0.1502
     30 C          66.5055   93.7975   10.7263 C.2     1  UNL1        0.2296
     31 S          67.5078   93.6732    9.6173 S.2     1  UNL1        0.0058
     32 C          66.1561   96.3679   10.8697 C.3     1  UNL1        0.2545
     33 O          65.5878   94.9827   10.7785 O.3     1  UNL1       -0.4543
@<TRIPOS>BOND
     1    32    33    1
     2    33    30    1
     3    30    31    2
     4    30    28    1
     5    28    27    1
     6    21    27    1
     7    21    22    1
     8    22    23    1
     9    23     1    1
    10     1     2   ar
    11     2     3   ar
    12     3     4   ar
    13     4     8    1
    14     8     9    1
    15     9    10    1
    16    10    11    1
    17    11    12    1
    18    12    13   am
    19    13    14    2
    20    13    18    1
    21    18    19    1
    22    18    20    1
    23    12    15    1
    24    15    16    1
    25     4     5   ar
    26     5     6    1
    27     5     7   ar
    28    23    24   am
    29    24    25    2
    30    24    26    1
    31    26    21    1
    32     7     1   ar
    33    16     8    1
    34    28    29    1
    35    11    17    1
@<TRIPOS>MOLECULE
*****
 33 35 0 0 0
SMALL
GASTEIGER

@<TRIPOS>ATOM
      1 C          64.2264   88.4567   14.5656 C.ar    1  UNL1        0.0594
      2 C          63.5506   88.9519   13.3214 C.ar    1  UNL1        0.0164
      3 C          64.0357   90.2035   12.6519 C.ar    1  UNL1        0.0181
      4 C          65.1966   90.9599   13.2266 C.ar    1  UNL1        0.0758
      5 C          65.8724   90.4647   14.4708 C.ar    1  UNL1        0.1546
      6 F          67.0332   91.2211   15.0455 F       1  UNL1       -0.2028
      7 C          65.3873   89.2131   15.1403 C.ar    1  UNL1        0.0459
      8 N          65.6816   92.2115   12.5570 N.pl3   1  UNL1       -0.3025
      9 C          65.9143   93.3852   13.4617 C.3     1  UNL1        0.1096
     10 C          66.3927   94.7612   13.1041 C.3     1  UNL1        0.1092
     11 N          66.7564   95.3033   11.7537 N.3     1  UNL1       -0.2248
     12 N          66.7317   94.6034   10.4272 N.am    1  UNL1       -0.2182
     13 C          67.1579   95.4273    9.2486 C.2     1  UNL1        0.3060
     14 O          67.5726   96.8557    9.4426 O.2     1  UNL1       -0.2675
     15 C          66.3371   93.1884   10.1236 C.3     1  UNL1        0.1328
     16 C          65.8697   92.1240   11.0716 C.3     1  UNL1        0.1140
     17 H          67.7202   95.6210   11.8571 H       1  UNL1        0.1453
     18 C          67.1695   94.8229    7.8758 C.3     1  UNL1        0.3942
     19 F          68.1172   93.7047    7.5565 F       1  UNL1       -0.1880
     20 F          66.2334   95.3365    6.8222 F       1  UNL1       -0.1880
     21 C          63.1586   84.8856   15.6483 C.3     1  UNL1        0.2101
     22 C          63.7211   85.8327   14.6301 C.3     1  UNL1        0.1468
     23 N          63.7414   87.2051   15.2351 N.am    1  UNL1       -0.2212
     24 C          63.1914   87.1063   16.6272 C.2     1  UNL1        0.4088
     25 O          63.0300   88.2415   17.5941 O.2     1  UNL1       -0.2258
     26 O          62.8313   85.6727   16.8825 O.3     1  UNL1       -0.4345
     27 C          62.9586   83.4104   15.4644 C.3     1  UNL1        0.1358
     28 N          62.0726   82.9049   14.3646 N.am    1  UNL1       -0.2954
     29 H          61.0946   82.9133   14.4771 H       1  UNL1        0.1502
     30 C          62.6768   82.3867   13.0932 C.2     1  UNL1        0.2296
     31 S          62.7310   80.9099   12.8360 S.2     1  UNL1        0.0058
     32 C          63.9467   82.8264   10.8697 C.3     1  UNL1        0.2545
     33 O          63.2267   83.3453   12.0790 O.3     1  UNL1       -0.4543
@<TRIPOS>BOND
     1    32    33    1
     2    33    30    1
     3    30    31    2
     4    30    28    1
     5    28    27    1
     6    21    27    1
     7    21    22    1
     8    22    23    1
     9    23     1    1
    10     1     2   ar
    11     2     3   ar
    12     3     4   ar
    13     4     8    1
    14     8     9    1
    15     9    10    1
    16    10    11    1
    17    11    12    1
    18    12    13   am
    19    13    14    2
    20    13    18    1
    21    18    19    1
    22    18    20    1
    23    12    15    1
    24    15    16    1
    25     4     5   ar
    26     5     6    1
    27     5     7   ar
    28    23    24   am
    29    24    25    2
    30    24    26    1
    31    26    21    1
    32     7     1   ar
    33    16     8    1
    34    28    29    1
    35    11    17    1
@<TRIPOS>MOLECULE
*****
 33 35 0 0 0
SMALL
GASTEIGER

@<TRIPOS>ATOM
      1 C          60.7042   91.8836    3.8383 C.ar    1  UNL1        0.0594
      2 C          62.1341   91.5167    3.5718 C.ar    1  UNL1        0.0164
      3 C          62.9237   92.2734    2.5451 C.ar    1  UNL1        0.0181
      4 C          62.2834   93.3969    1.7850 C.ar    1  UNL1        0.0758
      5 C          60.8536   93.7637    2.0514 C.ar    1  UNL1        0.1546
      6 F          60.2134   94.8872    1.2912 F       1  UNL1       -0.2028
      7 C          60.0640   93.0070    3.0781 C.ar    1  UNL1        0.0459
      8 N          63.0731   94.1535    0.7583 N.pl3   1  UNL1       -0.3025
      9 C          63.9231   95.2715    1.2853 C.3     1  UNL1        0.1096
     10 C          64.8183   96.2043    0.5245 C.3     1  UNL1        0.1092
     11 N          65.0845   96.2494   -0.9509 N.3     1  UNL1       -0.2248
     12 N          64.5214   95.3729   -2.0301 N.am    1  UNL1       -0.2182
     13 C          64.9885   95.6744   -3.4232 C.2     1  UNL1        0.3060
     14 O          65.9582   96.7933   -3.6635 O.2     1  UNL1       -0.2675
     15 C          63.5529   94.2349   -1.9004 C.3     1  UNL1        0.1328
     16 C          62.9083   93.6923   -0.6593 C.3     1  UNL1        0.1140
     17 H          66.0951   96.1369   -1.0317 H       1  UNL1        0.1453
     18 C          64.4859   94.8569   -4.5762 C.3     1  UNL1        0.3942
     19 F          63.1172   95.1105   -5.1352 F       1  UNL1       -0.1880
     20 F          65.3520   93.7859   -5.1701 F       1  UNL1       -0.1880
     21 C          59.3234   89.6079    6.6632 C.3     1  UNL1        0.2101
     22 C          60.4599   90.1084    5.8218 C.3     1  UNL1        0.1468
     23 N          59.9147   91.1269    4.8649 N.am    1  UNL1       -0.2212
     24 C          58.4413   91.2559    5.1150 C.2     1  UNL1        0.4088
     25 O          57.4989   92.1641    4.3824 O.2     1  UNL1       -0.2258
     26 O          58.0760   90.3171    6.2264 O.3     1  UNL1       -0.4345
     27 C          59.4179   88.5790    7.7505 C.3     1  UNL1        0.1358
     28 N          60.2919   88.8272    8.9441 N.am    1  UNL1       -0.2954
     29 H          60.7502   89.6923    9.0473 H       1  UNL1        0.1502
     30 C          60.4675   87.7571    9.9806 C.2     1  UNL1        0.2296
     31 S          60.9810   86.4050    9.5830 S.2     1  UNL1        0.0058
     32 C          59.7443   89.4265   11.8352 C.3     1  UNL1        0.2545
     33 O          60.1297   88.0392   11.4144 O.3     1  UNL1       -0.4543
@<TRIPOS>BOND
     1    32    33    1
     2    33    30    1
     3    30    31    2
     4    30    28    1
     5    28    27    1
     6    21    27    1
     7    21    22    1
     8    22    23    1
     9    23     1    1
    10     1     2   ar
    11     2     3   ar
    12     3     4   ar
    13     4     8    1
    14     8     9    1
    15     9    10    1
    16    10    11    1
    17    11    12    1
    18    12    13   am
    19    13    14    2
    20    13    18    1
    21    18    19    1
    22    18    20    1
    23    12    15    1
    24    15    16    1
    25     4     5   ar
    26     5     6    1
    27     5     7   ar
    28    23    24   am
    29    24    25    2
    30    24    26    1
    31    26    21    1
    32     7     1   ar
    33    16     8    1
    34    28    29    1
    35    11    17    1
@<TRIPOS>MOLECULE
*****
 33 35 0 0 0
SMALL
GASTEIGER

@<TRIPOS>ATOM
      1 C          64.4259   88.7330   14.3753 C.ar    1  UNL1        0.0594
      2 C          64.8480   87.6939   15.3715 C.ar    1  UNL1        0.0164
      3 C          64.5616   86.2448   15.1106 C.ar    1  UNL1        0.0181
      4 C          63.8533   85.8347   13.8536 C.ar    1  UNL1        0.0758
      5 C          63.4312   86.8736   12.8575 C.ar    1  UNL1        0.1546
      6 F          62.7228   86.4635   11.6005 F       1  UNL1       -0.2028
      7 C          63.7175   88.3229   13.1183 C.ar    1  UNL1        0.0459
      8 N          63.5670   84.3855   13.5928 N.pl3   1  UNL1       -0.3025
      9 C          64.6326   83.6351   12.8501 C.3     1  UNL1        0.1096
     10 C          64.6474   82.1921   12.4403 C.3     1  UNL1        0.1092
     11 N          63.6003   81.1435   12.6720 N.3     1  UNL1       -0.2248
     12 N          62.2798   81.2784   13.3707 N.am    1  UNL1       -0.2182
     13 C          61.4491   80.0314   13.4388 C.2     1  UNL1        0.3060
     14 O          61.9565   78.7580   12.8297 O.2     1  UNL1       -0.2675
     15 C          61.6803   82.4956   14.0102 C.3     1  UNL1        0.1328
     16 C          62.2532   83.8784   14.1090 C.3     1  UNL1        0.1140
     17 H          64.0858   80.4064   13.1834 H       1  UNL1        0.1453
     18 C          60.1109   80.0578   14.1160 C.3     1  UNL1        0.3942
     19 F          59.4232   78.7720   14.4684 F       1  UNL1       -0.1880
     20 F          59.4604   81.3698   14.4408 F       1  UNL1       -0.1880
     21 C          65.6331   92.4208   14.4616 C.3     1  UNL1        0.2101
     22 C          65.6577   91.0480   13.8575 C.3     1  UNL1        0.1468
     23 N          64.7122   90.1820   14.6362 N.am    1  UNL1       -0.2212
     24 C          64.1033   91.0196   15.7214 C.2     1  UNL1        0.4088
     25 O          63.1013   90.5551   16.7363 O.2     1  UNL1       -0.2258
     26 O          64.6725   92.4032   15.6135 O.3     1  UNL1       -0.4345
     27 C          66.4294   93.6035   13.9956 C.3     1  UNL1        0.1358
     28 N          66.1347   94.2285   12.6642 N.am    1  UNL1       -0.2954
     29 H          65.7905   95.1497   12.6182 H       1  UNL1        0.1502
     30 C          66.3645   93.4499   11.4028 C.2     1  UNL1        0.2296
     31 S          65.1998   93.0450   10.5487 S.2     1  UNL1        0.0058
     32 C          67.9777   92.0459    9.9277 C.3     1  UNL1        0.2545
     33 O          67.7589   93.0763   10.9956 O.3     1  UNL1       -0.4543
@<TRIPOS>BOND
     1    32    33    1
     2    33    30    1
     3    30    31    2
     4    30    28    1
     5    28    27    1
     6    21    27    1
     7    21    22    1
     8    22    23    1
     9    23     1    1
    10     1     2   ar
    11     2     3   ar
    12     3     4   ar
    13     4     8    1
    14     8     9    1
    15     9    10    1
    16    10    11    1
    17    11    12    1
    18    12    13   am
    19    13    14    2
    20    13    18    1
    21    18    19    1
    22    18    20    1
    23    12    15    1
    24    15    16    1
    25     4     5   ar
    26     5     6    1
    27     5     7   ar
    28    23    24   am
    29    24    25    2
    30    24    26    1
    31    26    21    1
    32     7     1   ar
    33    16     8    1
    34    28    29    1
    35    11    17    1
