@<TRIPOS>MOLECULE
*****
 31 34 0 0 0
SMALL
GASTEIGER

@<TRIPOS>ATOM
      1 C          60.5622   87.7211    9.7036 C.ar    1  UNL1        0.0502
      2 C          59.6309   87.1443    8.6790 C.ar    1  UNL1        0.0143
      3 C          59.1711   87.9856    7.5255 C.ar    1  UNL1       -0.0030
      4 C          59.6425   89.4038    7.3966 C.ar    1  UNL1       -0.0223
      5 C          60.5738   89.9806    8.4213 C.ar    1  UNL1       -0.0034
      6 C          61.0336   89.1392    9.5748 C.ar    1  UNL1        0.0089
      7 C          59.1826   90.2452    6.2431 C.3     1  UNL1        0.0251
      8 C          57.7162   90.4286    5.9863 C.3     1  UNL1        0.0215
      9 C          57.2562   91.2700    4.8327 C.3     1  UNL1        0.0689
     10 N          58.2628   91.9279    3.9360 N.3     1  UNL1       -0.2974
     11 C          59.7292   91.7443    4.1928 C.3     1  UNL1        0.0689
     12 C          60.1891   90.9030    5.3463 C.3     1  UNL1        0.0215
     13 H          58.0804   92.9307    3.9744 H       1  UNL1        0.1232
     14 C          61.9650   89.7160   10.5995 C.2     1  UNL1       -0.0253
     15 C          62.9796   90.7446   10.1963 C.2     1  UNL1       -0.0303
     16 C          63.9109   91.3214   11.2209 C.3     1  UNL1        0.0257
     17 C          63.8276   90.8696   12.6489 C.3     1  UNL1        0.0050
     18 C          62.8130   89.8410   13.0522 C.3     1  UNL1        0.0050
     19 C          61.8816   89.2643   12.0274 C.3     1  UNL1        0.0261
     20 C          62.1103   85.8663   10.6595 C.2     1  UNL1        0.2837
     21 O          62.7385   85.6943    9.3082 O.2     1  UNL1       -0.2665
     22 N          61.0222   86.8797   10.8572 N.am    1  UNL1       -0.2779
     23 H          60.6098   86.9926   11.7440 H       1  UNL1        0.1553
     24 C          63.0889   83.1101   13.2110 C.ar    1  UNL1        0.1469
     25 C          63.4670   84.3505   13.9650 C.ar    1  UNL1        0.1282
     26 N          63.1464   85.5339   13.1010 N.ar    1  UNL1       -0.2205
     27 C          62.5702   85.0250   11.8130 C.ar    1  UNL1        0.1958
     28 N          62.5347   83.5270   11.8809 N.ar    1  UNL1       -0.3257
     29 H          62.2054   82.9234   11.1763 H       1  UNL1        0.1682
     30 N          63.3887   80.2905   14.1910 N.1     1  UNL1       -0.1893
     31 C          63.2388   81.7003   13.7010 C.1     1  UNL1        0.1194
@<TRIPOS>BOND
     1    30    31    3
     2    31    24    1
     3    24    25   ar
     4    25    26   ar
     5    26    27   ar
     6    27    20    1
     7    20    21    2
     8    20    22   am
     9    22     1    1
    10     1     2   ar
    11     2     3   ar
    12     3     4   ar
    13     4     7    1
    14     7     8    1
    15     8     9    1
    16     9    10    1
    17    10    11    1
    18    11    12    1
    19     4     5   ar
    20     5     6   ar
    21     6    14    1
    22    14    15    2
    23    15    16    1
    24    16    17    1
    25    17    18    1
    26    18    19    1
    27    27    28   ar
    28    28    24   ar
    29     6     1   ar
    30    19    14    1
    31    12     7    1
    32    22    23    1
    33    10    13    1
    34    28    29    1
@<TRIPOS>MOLECULE
*****
 31 34 0 0 0
SMALL
GASTEIGER

@<TRIPOS>ATOM
      1 C          63.3344   87.0068   13.3960 C.ar    1  UNL1        0.0502
      2 C          64.2167   87.3887   14.5473 C.ar    1  UNL1        0.0143
      3 C          64.8043   88.7670   14.6169 C.ar    1  UNL1       -0.0030
      4 C          64.5096   89.7634   13.5351 C.ar    1  UNL1       -0.0223
      5 C          63.6273   89.3815   12.3837 C.ar    1  UNL1       -0.0034
      6 C          63.0397   88.0032   12.3142 C.ar    1  UNL1        0.0089
      7 C          65.0972   91.1418   13.6047 C.3     1  UNL1        0.0251
      8 C          65.6437   91.6595   14.9021 C.3     1  UNL1        0.0215
      9 C          66.2313   93.0379   14.9717 C.3     1  UNL1        0.0689
     10 N          66.2724   93.8986   13.7438 N.3     1  UNL1       -0.2974
     11 C          65.7259   93.3808   12.4463 C.3     1  UNL1        0.0689
     12 C          65.1383   92.0025   12.3768 C.3     1  UNL1        0.0215
     13 H          67.2521   94.1301   13.5792 H       1  UNL1        0.1232
     14 C          62.1573   87.6212   11.1628 C.2     1  UNL1       -0.0253
     15 C          62.6295   86.6117   10.1588 C.2     1  UNL1       -0.0303
     16 C          61.7472   86.2297    9.0074 C.3     1  UNL1        0.0257
     17 C          60.3927   86.8572    8.8601 C.3     1  UNL1        0.0050
     18 C          59.9205   87.8667    9.8641 C.3     1  UNL1        0.0050
     19 C          60.8029   88.2487   11.0155 C.3     1  UNL1        0.0261
     20 C          63.5697   84.4410   13.7301 C.2     1  UNL1        0.2837
     21 O          64.9802   84.6320   14.2035 O.2     1  UNL1       -0.2665
     22 N          62.7468   85.6283   13.3264 N.am    1  UNL1       -0.2779
     23 H          61.8210   85.5030   13.0157 H       1  UNL1        0.1553
     24 C          61.4543   81.1905   13.8876 C.ar    1  UNL1        0.1469
     25 C          62.7016   80.6925   13.2194 C.ar    1  UNL1        0.1282
     26 N          63.6458   81.8496   13.0790 N.ar    1  UNL1       -0.2205
     27 C          62.9821   83.0626   13.6606 C.ar    1  UNL1        0.1958
     28 N          61.6278   82.6553   14.1603 N.ar    1  UNL1       -0.3257
     29 H          60.9684   83.2457   14.5915 H       1  UNL1        0.1682
     30 N          59.0374   79.5456   14.5607 N.1     1  UNL1       -0.1893
     31 C          60.2459   80.3681   14.2242 C.1     1  UNL1        0.1194
@<TRIPOS>BOND
     1    30    31    3
     2    31    24    1
     3    24    25   ar
     4    25    26   ar
     5    26    27   ar
     6    27    20    1
     7    20    21    2
     8    20    22   am
     9    22     1    1
    10     1     2   ar
    11     2     3   ar
    12     3     4   ar
    13     4     7    1
    14     7     8    1
    15     8     9    1
    16     9    10    1
    17    10    11    1
    18    11    12    1
    19     4     5   ar
    20     5     6   ar
    21     6    14    1
    22    14    15    2
    23    15    16    1
    24    16    17    1
    25    17    18    1
    26    18    19    1
    27    27    28   ar
    28    28    24   ar
    29     6     1   ar
    30    19    14    1
    31    12     7    1
    32    22    23    1
    33    10    13    1
    34    28    29    1
@<TRIPOS>MOLECULE
*****
 31 34 0 0 0
SMALL
GASTEIGER

@<TRIPOS>ATOM
      1 C          63.4025   86.9367   13.3643 C.ar    1  UNL1        0.0502
      2 C          64.2353   87.2430   14.5737 C.ar    1  UNL1        0.0143
      3 C          64.7931   88.6215   14.7705 C.ar    1  UNL1       -0.0030
      4 C          64.5180   89.6935   13.7581 C.ar    1  UNL1       -0.0223
      5 C          63.6851   89.3872   12.5488 C.ar    1  UNL1       -0.0034
      6 C          63.1274   88.0087   12.3519 C.ar    1  UNL1        0.0089
      7 C          65.0758   91.0720   13.9550 C.3     1  UNL1        0.0251
      8 C          65.2895   91.9705   12.7731 C.3     1  UNL1        0.0215
      9 C          65.8473   93.3490   12.9701 C.3     1  UNL1        0.0689
     10 N          66.1914   93.8289   14.3490 N.3     1  UNL1       -0.2974
     11 C          65.9777   92.9303   15.5309 C.3     1  UNL1        0.0689
     12 C          65.4199   91.5519   15.3339 C.3     1  UNL1        0.0215
     13 H          65.6384   94.6698   14.5146 H       1  UNL1        0.1232
     14 C          62.2945   87.7023   11.1425 C.2     1  UNL1       -0.0253
     15 C          61.4453   88.7739   10.5256 C.2     1  UNL1       -0.0303
     16 C          60.6124   88.4675    9.3163 C.3     1  UNL1        0.0257
     17 C          60.6288   87.0895    8.7239 C.3     1  UNL1        0.0050
     18 C          61.4780   86.0179    9.3408 C.3     1  UNL1        0.0050
     19 C          62.3109   86.3244   10.5501 C.3     1  UNL1        0.0261
     20 C          63.6940   84.3567   13.4590 C.2     1  UNL1        0.2837
     21 O          65.1012   84.5337   13.9476 O.2     1  UNL1       -0.2665
     22 N          62.8447   85.5582   13.1674 N.am    1  UNL1       -0.2779
     23 H          61.9211   85.4420   12.8467 H       1  UNL1        0.1553
     24 C          62.6726   80.7880   12.3250 C.ar    1  UNL1        0.1469
     25 C          61.8835   80.9261   13.5932 C.ar    1  UNL1        0.1282
     26 N          62.1701   82.2798   14.1723 N.ar    1  UNL1       -0.2205
     27 C          63.1363   82.9783   13.2621 C.ar    1  UNL1        0.1958
     28 N          63.4469   82.0563   12.1204 N.ar    1  UNL1       -0.3257
     29 H          64.0526   82.2497   11.3688 H       1  UNL1        0.1682
     30 N          62.6979   78.3952   10.5155 N.1     1  UNL1       -0.1893
     31 C          62.6852   79.5916   11.4203 C.1     1  UNL1        0.1194
@<TRIPOS>BOND
     1    30    31    3
     2    31    24    1
     3    24    25   ar
     4    25    26   ar
     5    26    27   ar
     6    27    20    1
     7    20    21    2
     8    20    22   am
     9    22     1    1
    10     1     2   ar
    11     2     3   ar
    12     3     4   ar
    13     4     7    1
    14     7     8    1
    15     8     9    1
    16     9    10    1
    17    10    11    1
    18    11    12    1
    19     4     5   ar
    20     5     6   ar
    21     6    14    1
    22    14    15    2
    23    15    16    1
    24    16    17    1
    25    17    18    1
    26    18    19    1
    27    27    28   ar
    28    28    24   ar
    29     6     1   ar
    30    19    14    1
    31    12     7    1
    32    22    23    1
    33    10    13    1
    34    28    29    1
@<TRIPOS>MOLECULE
*****
 31 34 0 0 0
SMALL
GASTEIGER

@<TRIPOS>ATOM
      1 C          64.6102   90.5228   12.8216 C.ar    1  UNL1        0.0502
      2 C          65.8143   91.2447   13.3497 C.ar    1  UNL1        0.0143
      3 C          66.2775   92.5110   12.6927 C.ar    1  UNL1       -0.0030
      4 C          65.5366   93.0555   11.5075 C.ar    1  UNL1       -0.0223
      5 C          64.3326   92.3336   10.9794 C.ar    1  UNL1       -0.0034
      6 C          63.8693   91.0673   11.6364 C.ar    1  UNL1        0.0089
      7 C          65.9999   94.3219   10.8505 C.3     1  UNL1        0.0251
      8 C          66.0927   95.5895   11.6470 C.3     1  UNL1        0.0215
      9 C          66.5560   96.8560   10.9899 C.3     1  UNL1        0.0689
     10 N          66.9265   96.8547    9.5364 N.3     1  UNL1       -0.2974
     11 C          66.8337   95.5869    8.7399 C.3     1  UNL1        0.0689
     12 C          66.3704   94.3206    9.3969 C.3     1  UNL1        0.0215
     13 H          67.8954   97.1681    9.4792 H       1  UNL1        0.1232
     14 C          62.6652   90.3453   11.1083 C.2     1  UNL1       -0.0253
     15 C          61.2887   90.8075   11.4847 C.2     1  UNL1       -0.0303
     16 C          60.0846   90.0856   10.9566 C.3     1  UNL1        0.0257
     17 C          60.2569   88.9014   10.0520 C.3     1  UNL1        0.0050
     18 C          61.6334   88.4392    9.6756 C.3     1  UNL1        0.0050
     19 C          62.8375   89.1612   10.2038 C.3     1  UNL1        0.0261
     20 C          63.9686   89.2055   14.9671 C.2     1  UNL1        0.2837
     21 O          64.2535   90.4211   15.7986 O.2     1  UNL1       -0.2665
     22 N          64.1469   89.2564   13.4786 N.am    1  UNL1       -0.2779
     23 H          63.9599   88.4586   12.9329 H       1  UNL1        0.1553
     24 C          63.0019   85.6000   16.0302 C.ar    1  UNL1        0.1469
     25 C          62.5830   86.3811   17.2404 C.ar    1  UNL1        0.1282
     26 N          62.8942   87.8268   16.9894 N.ar    1  UNL1       -0.2205
     27 C          63.5053   87.9392   15.6242 C.ar    1  UNL1        0.1958
     28 N          63.5719   86.5630   15.0314 N.ar    1  UNL1       -0.3257
     29 H          63.9273   86.3322   14.1427 H       1  UNL1        0.1682
     30 N          62.7447   82.6327   15.6707 N.1     1  UNL1       -0.1893
     31 C          62.8733   84.1163   15.8504 C.1     1  UNL1        0.1194
@<TRIPOS>BOND
     1    30    31    3
     2    31    24    1
     3    24    25   ar
     4    25    26   ar
     5    26    27   ar
     6    27    20    1
     7    20    21    2
     8    20    22   am
     9    22     1    1
    10     1     2   ar
    11     2     3   ar
    12     3     4   ar
    13     4     7    1
    14     7     8    1
    15     8     9    1
    16     9    10    1
    17    10    11    1
    18    11    12    1
    19     4     5   ar
    20     5     6   ar
    21     6    14    1
    22    14    15    2
    23    15    16    1
    24    16    17    1
    25    17    18    1
    26    18    19    1
    27    27    28   ar
    28    28    24   ar
    29     6     1   ar
    30    19    14    1
    31    12     7    1
    32    22    23    1
    33    10    13    1
    34    28    29    1
@<TRIPOS>MOLECULE
*****
 31 34 0 0 0
SMALL
GASTEIGER

@<TRIPOS>ATOM
      1 C          63.0871   89.8017   12.2719 C.ar    1  UNL1        0.0502
      2 C          62.4436   90.7251   11.2803 C.ar    1  UNL1        0.0143
      3 C          61.6088   90.1658   10.1667 C.ar    1  UNL1       -0.0030
      4 C          61.4174   88.6831   10.0446 C.ar    1  UNL1       -0.0223
      5 C          62.0608   87.7597   11.0362 C.ar    1  UNL1       -0.0034
      6 C          62.8957   88.3190   12.1498 C.ar    1  UNL1        0.0089
      7 C          60.5825   88.1238    8.9310 C.3     1  UNL1        0.0251
      8 C          60.5511   86.6440    8.6875 C.3     1  UNL1        0.0215
      9 C          59.7162   86.0847    7.5738 C.3     1  UNL1        0.0689
     10 N          58.9128   87.0053    6.7036 N.3     1  UNL1       -0.2974
     11 C          58.9443   88.4851    6.9471 C.3     1  UNL1        0.0689
     12 C          59.7792   89.0443    8.0608 C.3     1  UNL1        0.0215
     13 H          57.9389   86.7138    6.7869 H       1  UNL1        0.1232
     14 C          63.5391   87.3956   13.1415 C.2     1  UNL1       -0.0253
     15 C          63.4580   85.9106   12.9458 C.2     1  UNL1       -0.0303
     16 C          64.1014   84.9872   13.9374 C.3     1  UNL1        0.0257
     17 C          64.8261   85.5488   15.1247 C.3     1  UNL1        0.0050
     18 C          64.9072   87.0337   15.3204 C.3     1  UNL1        0.0050
     19 C          64.2637   87.9571   14.3288 C.3     1  UNL1        0.0261
     20 C          64.8952   91.4686   13.1099 C.2     1  UNL1        0.2837
     21 O          65.0336   92.0169   11.7205 O.2     1  UNL1       -0.2665
     22 N          63.9219   90.3610   13.3856 N.am    1  UNL1       -0.2779
     23 H          63.8311   90.0012   14.2974 H       1  UNL1        0.1553
     24 C          67.5491   93.0728   15.4441 C.ar    1  UNL1        0.1469
     25 C          66.4805   92.7044   16.4303 C.ar    1  UNL1        0.1282
     26 N          65.3563   92.0586   15.6759 N.ar    1  UNL1       -0.2205
     27 C          65.7301   92.0279   14.2235 C.ar    1  UNL1        0.1958
     28 N          67.0852   92.6547   14.0802 N.ar    1  UNL1       -0.3257
     29 H          67.5829   92.7713   13.2388 H       1  UNL1        0.1682
     30 N          70.1561   94.4110   16.0867 N.1     1  UNL1       -0.1893
     31 C          68.8526   93.7419   15.7654 C.1     1  UNL1        0.1194
@<TRIPOS>BOND
     1    30    31    3
     2    31    24    1
     3    24    25   ar
     4    25    26   ar
     5    26    27   ar
     6    27    20    1
     7    20    21    2
     8    20    22   am
     9    22     1    1
    10     1     2   ar
    11     2     3   ar
    12     3     4   ar
    13     4     7    1
    14     7     8    1
    15     8     9    1
    16     9    10    1
    17    10    11    1
    18    11    12    1
    19     4     5   ar
    20     5     6   ar
    21     6    14    1
    22    14    15    2
    23    15    16    1
    24    16    17    1
    25    17    18    1
    26    18    19    1
    27    27    28   ar
    28    28    24   ar
    29     6     1   ar
    30    19    14    1
    31    12     7    1
    32    22    23    1
    33    10    13    1
    34    28    29    1
@<TRIPOS>MOLECULE
*****
 31 34 0 0 0
SMALL
GASTEIGER

@<TRIPOS>ATOM
      1 C          63.9811   90.0223   12.8096 C.ar    1  UNL1        0.0502
      2 C          65.0527   90.7551   13.5610 C.ar    1  UNL1        0.0143
      3 C          65.6596   91.9980   12.9805 C.ar    1  UNL1       -0.0030
      4 C          65.1948   92.5079   11.6486 C.ar    1  UNL1       -0.0223
      5 C          64.1232   91.7751   10.8972 C.ar    1  UNL1       -0.0034
      6 C          63.5164   90.5323   11.4777 C.ar    1  UNL1        0.0089
      7 C          65.8017   93.7509   11.0681 C.3     1  UNL1        0.0251
      8 C          66.2592   93.7655    9.6396 C.3     1  UNL1        0.0215
      9 C          66.8661   95.0084    9.0591 C.3     1  UNL1        0.0689
     10 N          67.0155   96.2366    9.9071 N.3     1  UNL1       -0.2974
     11 C          66.5580   96.2220   11.3356 C.3     1  UNL1        0.0689
     12 C          65.9511   94.9791   11.9161 C.3     1  UNL1        0.0215
     13 H          66.4985   96.9816    9.4400 H       1  UNL1        0.1232
     14 C          62.4448   89.7993   10.7263 C.2     1  UNL1       -0.0253
     15 C          62.6937   88.4041   10.2350 C.2     1  UNL1       -0.0303
     16 C          61.6222   87.6712    9.4836 C.3     1  UNL1        0.0257
     17 C          60.3016   88.3335    9.2236 C.3     1  UNL1        0.0050
     18 C          60.0526   89.7287    9.7150 C.3     1  UNL1        0.0050
     19 C          61.1243   90.4616   10.4664 C.3     1  UNL1        0.0261
     20 C          64.1397   87.9693   14.3941 C.2     1  UNL1        0.2837
     21 O          65.5121   88.4022   14.8175 O.2     1  UNL1       -0.2665
     22 N          63.3742   88.7793   13.3901 N.am    1  UNL1       -0.2779
     23 H          62.4735   88.4953   13.1122 H       1  UNL1        0.1553
     24 C          62.7389   84.4471   15.2288 C.ar    1  UNL1        0.1469
     25 C          62.4593   85.1806   16.5070 C.ar    1  UNL1        0.1282
     26 N          62.9500   86.5893   16.3499 N.ar    1  UNL1       -0.2205
     27 C          63.5329   86.7265   14.9746 C.ar    1  UNL1        0.1958
     28 N          63.4025   85.4025   14.2817 N.ar    1  UNL1       -0.3257
     29 H          63.7001   85.1967   13.3661 H       1  UNL1        0.1682
     30 N          62.0858   81.5738   14.6654 N.1     1  UNL1       -0.1893
     31 C          62.4123   83.0104   14.9471 C.1     1  UNL1        0.1194
@<TRIPOS>BOND
     1    30    31    3
     2    31    24    1
     3    24    25   ar
     4    25    26   ar
     5    26    27   ar
     6    27    20    1
     7    20    21    2
     8    20    22   am
     9    22     1    1
    10     1     2   ar
    11     2     3   ar
    12     3     4   ar
    13     4     7    1
    14     7     8    1
    15     8     9    1
    16     9    10    1
    17    10    11    1
    18    11    12    1
    19     4     5   ar
    20     5     6   ar
    21     6    14    1
    22    14    15    2
    23    15    16    1
    24    16    17    1
    25    17    18    1
    26    18    19    1
    27    27    28   ar
    28    28    24   ar
    29     6     1   ar
    30    19    14    1
    31    12     7    1
    32    22    23    1
    33    10    13    1
    34    28    29    1
@<TRIPOS>MOLECULE
*****
 31 34 0 0 0
SMALL
GASTEIGER

@<TRIPOS>ATOM
      1 C          61.3453   87.4096    9.5456 C.ar    1  UNL1        0.0502
      2 C          60.9006   85.9923    9.3368 C.ar    1  UNL1        0.0143
      3 C          61.3608   84.9160   10.2748 C.ar    1  UNL1       -0.0030
      4 C          62.2656   85.2570   11.4215 C.ar    1  UNL1       -0.0223
      5 C          62.7103   86.6742   11.6303 C.ar    1  UNL1       -0.0034
      6 C          62.2501   87.7505   10.6924 C.ar    1  UNL1        0.0089
      7 C          62.7258   84.1806   12.3595 C.3     1  UNL1        0.0251
      8 C          62.6470   82.7410   11.9455 C.3     1  UNL1        0.0215
      9 C          63.1071   81.6646   12.8835 C.3     1  UNL1        0.0689
     10 N          63.6461   82.0279   14.2354 N.3     1  UNL1       -0.2974
     11 C          63.7249   83.4675   14.6493 C.3     1  UNL1        0.0689
     12 C          63.2647   84.5438   13.7113 C.3     1  UNL1        0.0215
     13 H          64.5943   81.6551   14.2842 H       1  UNL1        0.1232
     14 C          62.6948   89.1678   10.9011 C.2     1  UNL1       -0.0253
     15 C          62.6710   90.1376    9.7570 C.2     1  UNL1       -0.0303
     16 C          63.1156   91.5548    9.9657 C.3     1  UNL1        0.0257
     17 C          63.5842   92.0024   11.3186 C.3     1  UNL1        0.0050
     18 C          63.6080   91.0327   12.4627 C.3     1  UNL1        0.0050
     19 C          63.1633   89.6153   12.2540 C.3     1  UNL1        0.0261
     20 C          59.6529   88.2808    7.7773 C.2     1  UNL1        0.2837
     21 O          58.8808   86.9992    7.8849 O.2     1  UNL1       -0.2665
     22 N          60.8851   88.4860    8.6077 N.am    1  UNL1       -0.2779
     23 H          61.3919   89.3271    8.5370 H       1  UNL1        0.1553
     24 C          59.1984   91.1806    5.2377 C.ar    1  UNL1        0.1469
     25 C          57.7708   90.8462    5.5543 C.ar    1  UNL1        0.1282
     26 N          57.7673   89.7192    6.5442 N.ar    1  UNL1       -0.2205
     27 C          59.1927   89.3571    6.8394 C.ar    1  UNL1        0.1958
     28 N          60.0772   90.2603    6.0319 N.ar    1  UNL1       -0.3257
     29 H          61.0616   90.2507    6.0245 H       1  UNL1        0.1682
     30 N          60.1320   93.3153    3.3479 N.1     1  UNL1       -0.1893
     31 C          59.6652   92.2479    4.2928 C.1     1  UNL1        0.1194
@<TRIPOS>BOND
     1    30    31    3
     2    31    24    1
     3    24    25   ar
     4    25    26   ar
     5    26    27   ar
     6    27    20    1
     7    20    21    2
     8    20    22   am
     9    22     1    1
    10     1     2   ar
    11     2     3   ar
    12     3     4   ar
    13     4     7    1
    14     7     8    1
    15     8     9    1
    16     9    10    1
    17    10    11    1
    18    11    12    1
    19     4     5   ar
    20     5     6   ar
    21     6    14    1
    22    14    15    2
    23    15    16    1
    24    16    17    1
    25    17    18    1
    26    18    19    1
    27    27    28   ar
    28    28    24   ar
    29     6     1   ar
    30    19    14    1
    31    12     7    1
    32    22    23    1
    33    10    13    1
    34    28    29    1
@<TRIPOS>MOLECULE
*****
 31 34 0 0 0
SMALL
GASTEIGER

@<TRIPOS>ATOM
      1 C          63.2421   89.0019   12.2736 C.ar    1  UNL1        0.0502
      2 C          62.6666   89.8093   11.1481 C.ar    1  UNL1        0.0143
      3 C          61.9113   89.1277   10.0459 C.ar    1  UNL1       -0.0030
      4 C          61.7314   87.6387   10.0693 C.ar    1  UNL1       -0.0223
      5 C          62.3068   86.8313   11.1949 C.ar    1  UNL1       -0.0034
      6 C          63.0622   87.5129   12.2970 C.ar    1  UNL1        0.0089
      7 C          60.9759   86.9571    8.9671 C.3     1  UNL1        0.0251
      8 C          59.5577   87.3492    8.6760 C.3     1  UNL1        0.0215
      9 C          58.8022   86.6676    7.5738 C.3     1  UNL1        0.0689
     10 N          59.4651   85.5940    6.7627 N.3     1  UNL1       -0.2974
     11 C          60.8835   85.2019    7.0538 C.3     1  UNL1        0.0689
     12 C          61.6388   85.8835    8.1560 C.3     1  UNL1        0.0215
     13 H          59.4381   85.9005    5.7902 H       1  UNL1        0.1232
     14 C          63.6378   86.7056   13.4226 C.2     1  UNL1       -0.0253
     15 C          64.2544   87.3967   14.6025 C.2     1  UNL1       -0.0303
     16 C          64.8299   86.5894   15.7281 C.3     1  UNL1        0.0257
     17 C          64.7888   85.0909   15.6739 C.3     1  UNL1        0.0050
     18 C          64.1722   84.3997   14.4940 C.3     1  UNL1        0.0050
     19 C          63.5967   85.2071   13.3683 C.3     1  UNL1        0.0261
     20 C          64.6321   91.0211   13.1345 C.2     1  UNL1        0.2837
     21 O          64.5111   91.6771   11.7909 O.2     1  UNL1       -0.2665
     22 N          63.9976   89.6835   13.3758 N.am    1  UNL1       -0.2779
     23 H          64.0769   89.2530   14.2576 H       1  UNL1        0.1553
     24 C          67.1191   92.8819   15.4619 C.ar    1  UNL1        0.1469
     25 C          65.9808   92.6213   16.4034 C.ar    1  UNL1        0.1282
     26 N          64.9106   91.8925   15.6461 N.ar    1  UNL1       -0.2205
     27 C          65.3875   91.7027   14.2366 C.ar    1  UNL1        0.1958
     28 N          66.7524   92.3142   14.1228 N.ar    1  UNL1       -0.3257
     29 H          67.3097   92.3387   13.3116 H       1  UNL1        0.1682
     30 N          69.6796   94.2913   16.1385 N.1     1  UNL1       -0.1893
     31 C          68.3994   93.5866   15.8002 C.1     1  UNL1        0.1194
@<TRIPOS>BOND
     1    30    31    3
     2    31    24    1
     3    24    25   ar
     4    25    26   ar
     5    26    27   ar
     6    27    20    1
     7    20    21    2
     8    20    22   am
     9    22     1    1
    10     1     2   ar
    11     2     3   ar
    12     3     4   ar
    13     4     7    1
    14     7     8    1
    15     8     9    1
    16     9    10    1
    17    10    11    1
    18    11    12    1
    19     4     5   ar
    20     5     6   ar
    21     6    14    1
    22    14    15    2
    23    15    16    1
    24    16    17    1
    25    17    18    1
    26    18    19    1
    27    27    28   ar
    28    28    24   ar
    29     6     1   ar
    30    19    14    1
    31    12     7    1
    32    22    23    1
    33    10    13    1
    34    28    29    1
@<TRIPOS>MOLECULE
*****
 31 34 0 0 0
SMALL
GASTEIGER

@<TRIPOS>ATOM
      1 C          63.1181   88.6403   11.9035 C.ar    1  UNL1        0.0502
      2 C          63.1788   90.1216   11.6759 C.ar    1  UNL1        0.0143
      3 C          63.8092   91.0132   12.7043 C.ar    1  UNL1       -0.0030
      4 C          64.3789   90.4233   13.9603 C.ar    1  UNL1       -0.0223
      5 C          64.3182   88.9420   14.1879 C.ar    1  UNL1       -0.0034
      6 C          63.6878   88.0504   13.1595 C.ar    1  UNL1        0.0089
      7 C          65.0094   91.3150   14.9888 C.3     1  UNL1        0.0251
      8 C          64.2458   91.6925   16.2234 C.3     1  UNL1        0.0215
      9 C          64.8763   92.5842   17.2519 C.3     1  UNL1        0.0689
     10 N          66.2703   93.0982   17.0456 N.3     1  UNL1       -0.2974
     11 C          67.0338   92.7206   15.8108 C.3     1  UNL1        0.0689
     12 C          66.4034   91.8290   14.7825 C.3     1  UNL1        0.0215
     13 H          66.8223   92.7800   17.8420 H       1  UNL1        0.1232
     14 C          63.6271   86.5690   13.3871 C.2     1  UNL1       -0.0253
     15 C          64.2971   85.9663   14.5862 C.2     1  UNL1       -0.0303
     16 C          64.2364   84.4850   14.8138 C.3     1  UNL1        0.0257
     17 C          63.5057   83.6062   13.8422 C.3     1  UNL1        0.0050
     18 C          62.8357   84.2088   12.6431 C.3     1  UNL1        0.0050
     19 C          62.8964   85.6903   12.4155 C.3     1  UNL1        0.0261
     20 C          61.3639   88.2624   10.0246 C.2     1  UNL1        0.2837
     21 O          60.8707   89.6678   10.2026 O.2     1  UNL1       -0.2665
     22 N          62.4876   87.7486   10.8751 N.am    1  UNL1       -0.2779
     23 H          62.8114   86.8262   10.7583 H       1  UNL1        0.1553
     24 C          60.4343   85.7005    7.2610 C.ar    1  UNL1        0.1469
     25 C          59.0924   86.2973    7.5663 C.ar    1  UNL1        0.1282
     26 N          59.2773   87.3296    8.6386 N.ar    1  UNL1       -0.2205
     27 C          60.7335   87.3708    8.9962 C.ar    1  UNL1        0.1958
     28 N          61.4485   86.3640    8.1448 N.ar    1  UNL1       -0.3257
     29 H          62.4140   86.1723    8.1629 H       1  UNL1        0.1682
     30 N          60.9918   83.5563    5.2382 N.1     1  UNL1       -0.1893
     31 C          60.7130   84.6284    6.2496 C.1     1  UNL1        0.1194
@<TRIPOS>BOND
     1    30    31    3
     2    31    24    1
     3    24    25   ar
     4    25    26   ar
     5    26    27   ar
     6    27    20    1
     7    20    21    2
     8    20    22   am
     9    22     1    1
    10     1     2   ar
    11     2     3   ar
    12     3     4   ar
    13     4     7    1
    14     7     8    1
    15     8     9    1
    16     9    10    1
    17    10    11    1
    18    11    12    1
    19     4     5   ar
    20     5     6   ar
    21     6    14    1
    22    14    15    2
    23    15    16    1
    24    16    17    1
    25    17    18    1
    26    18    19    1
    27    27    28   ar
    28    28    24   ar
    29     6     1   ar
    30    19    14    1
    31    12     7    1
    32    22    23    1
    33    10    13    1
    34    28    29    1
