@<TRIPOS>MOLECULE
*****
 21 24 0 0 0
SMALL
GASTEIGER

@<TRIPOS>ATOM
      1 C          63.6718   83.4819   13.7950 C.3     1  UNL1        0.0457
      2 C          63.3488   83.3455   12.3366 C.3     1  UNL1        0.0712
      3 N          62.4636   82.2299   11.8655 N.3     1  UNL1       -0.2974
      4 C          61.9014   81.2507   12.8530 C.3     1  UNL1        0.0689
      5 C          62.2245   81.3870   14.3115 C.3     1  UNL1        0.0212
      6 C          63.1096   82.5026   14.7824 C.3     1  UNL1        0.0239
      7 C          63.9948   83.6182   15.2534 C.3     1  UNL1        0.0083
      8 H          63.0047   81.6896   11.1905 H       1  UNL1        0.1232
      9 C          63.2477   82.9893   13.3703 C.ar    1  UNL1       -0.0226
     10 C          64.2625   82.3663   12.4581 C.ar    1  UNL1       -0.0043
     11 C          64.4006   82.8530   11.0460 C.ar    1  UNL1       -0.0003
     12 C          63.5239   83.9627   10.5460 C.ar    1  UNL1       -0.0000
     13 C          63.6620   84.4494    9.1340 C.ar    1  UNL1       -0.0000
     14 C          62.7852   85.5591    8.6340 C.ar    1  UNL1       -0.0000
     15 C          61.7705   86.1821    9.5462 C.ar    1  UNL1       -0.0000
     16 C          61.6324   85.6954   10.9583 C.ar    1  UNL1       -0.0000
     17 C          62.5091   84.5857   11.4583 C.ar    1  UNL1       -0.0003
     18 C          62.3710   84.0990   12.8703 C.ar    1  UNL1       -0.0043
     19 C          64.5075   84.6913   13.4968 C.3     1  UNL1        0.1438
     20 C          64.4378   87.0154   14.6561 C.3     1  UNL1        0.1741
     21 O          64.9347   85.6009   14.6105 O.3     1  UNL1       -0.3510
@<TRIPOS>BOND
     1    20    21    1
     2    21    19    1
     3     1    19    1
     4     1     2    1
     5     2     3    1
     6     3     4    1
     7     4     5    1
     8     5     6    1
     9     6     9    1
    10     9    10   ar
    11    10    11   ar
    12    11    12   ar
    13    12    13   ar
    14    13    14   ar
    15    14    15   ar
    16    15    16   ar
    17    16    17   ar
    18    17    18   ar
    19     6     7    1
    20     6     1    1
    21    18     9   ar
    22     7     1    1
    23    17    12   ar
    24     3     8    1
@<TRIPOS>MOLECULE
*****
 21 24 0 0 0
SMALL
GASTEIGER

@<TRIPOS>ATOM
      1 C          63.1285   82.0862   12.8339 C.3     1  UNL1        0.0457
      2 C          63.5142   83.2338   11.9483 C.3     1  UNL1        0.0712
      3 N          64.2821   84.3920   12.5132 N.3     1  UNL1       -0.2974
      4 C          64.6642   84.4025   13.9637 C.3     1  UNL1        0.0689
      5 C          64.2785   83.2548   14.8492 C.3     1  UNL1        0.0212
      6 C          63.5107   82.0967   14.2843 C.3     1  UNL1        0.0239
      7 C          62.7428   80.9386   13.7194 C.3     1  UNL1        0.0083
      8 H          63.7181   85.2263   12.3513 H       1  UNL1        0.1232
      9 C          63.5127   82.7532   12.9356 C.ar    1  UNL1       -0.0226
     10 C          64.5159   82.3378   11.9007 C.ar    1  UNL1       -0.0043
     11 C          64.5179   82.9943   10.5520 C.ar    1  UNL1       -0.0003
     12 C          63.5167   84.0663   10.2382 C.ar    1  UNL1       -0.0000
     13 C          63.5187   84.7228    8.8895 C.ar    1  UNL1       -0.0000
     14 C          62.5175   85.7947    8.5757 C.ar    1  UNL1       -0.0000
     15 C          61.5143   86.2101    9.6105 C.ar    1  UNL1       -0.0000
     16 C          61.5122   85.5536   10.9592 C.ar    1  UNL1       -0.0000
     17 C          62.5135   84.4817   11.2731 C.ar    1  UNL1       -0.0003
     18 C          62.5115   83.8252   12.6217 C.ar    1  UNL1       -0.0043
     19 C          62.4645   81.4115   11.6702 C.3     1  UNL1        0.1438
     20 C          62.8666   79.4628    9.9996 C.3     1  UNL1        0.1741
     21 O          62.7100   79.9552   11.4078 O.3     1  UNL1       -0.3510
@<TRIPOS>BOND
     1    20    21    1
     2    21    19    1
     3     1    19    1
     4     1     2    1
     5     2     3    1
     6     3     4    1
     7     4     5    1
     8     5     6    1
     9     6     9    1
    10     9    10   ar
    11    10    11   ar
    12    11    12   ar
    13    12    13   ar
    14    13    14   ar
    15    14    15   ar
    16    15    16   ar
    17    16    17   ar
    18    17    18   ar
    19     6     7    1
    20     6     1    1
    21    18     9   ar
    22     7     1    1
    23    17    12   ar
    24     3     8    1
@<TRIPOS>MOLECULE
*****
 21 24 0 0 0
SMALL
GASTEIGER

@<TRIPOS>ATOM
      1 C          61.5319   88.4657    9.9137 C.3     1  UNL1        0.0457
      2 C          61.4565   86.9819   10.1201 C.3     1  UNL1        0.0712
      3 N          60.4615   86.1669    9.3482 N.3     1  UNL1       -0.2974
      4 C          59.5419   86.8358    8.3700 C.3     1  UNL1        0.0689
      5 C          59.6173   88.3196    8.1636 C.3     1  UNL1        0.0212
      6 C          60.6123   89.1346    8.9355 C.3     1  UNL1        0.0239
      7 C          61.6073   89.9495    9.7074 C.3     1  UNL1        0.0083
      8 H          59.8705   85.6970   10.0340 H       1  UNL1        0.1232
      9 C          61.0997   87.8917    9.6195 C.ar    1  UNL1       -0.0226
     10 C          60.6412   87.5728   11.0116 C.ar    1  UNL1       -0.0043
     11 C          61.1286   86.3299   11.6955 C.ar    1  UNL1       -0.0003
     12 C          62.0746   85.4060   10.9873 C.ar    1  UNL1       -0.0000
     13 C          62.5620   84.1632   11.6712 C.ar    1  UNL1       -0.0000
     14 C          63.5080   83.2393   10.9630 C.ar    1  UNL1       -0.0000
     15 C          63.9666   83.5582    9.5710 C.ar    1  UNL1       -0.0000
     16 C          63.4791   84.8011    8.8870 C.ar    1  UNL1       -0.0000
     17 C          62.5332   85.7250    9.5952 C.ar    1  UNL1       -0.0003
     18 C          62.0457   86.9678    8.9113 C.ar    1  UNL1       -0.0043
     19 C          62.6373   88.5500   10.9242 C.3     1  UNL1        0.1438
     20 C          63.3902   89.9638   12.9698 C.3     1  UNL1        0.1741
     21 O          63.0073   89.8750   11.5223 O.3     1  UNL1       -0.3510
@<TRIPOS>BOND
     1    20    21    1
     2    21    19    1
     3     1    19    1
     4     1     2    1
     5     2     3    1
     6     3     4    1
     7     4     5    1
     8     5     6    1
     9     6     9    1
    10     9    10   ar
    11    10    11   ar
    12    11    12   ar
    13    12    13   ar
    14    13    14   ar
    15    14    15   ar
    16    15    16   ar
    17    16    17   ar
    18    17    18   ar
    19     6     7    1
    20     6     1    1
    21    18     9   ar
    22     7     1    1
    23    17    12   ar
    24     3     8    1
@<TRIPOS>MOLECULE
*****
 21 24 0 0 0
SMALL
GASTEIGER

@<TRIPOS>ATOM
      1 C          65.6033   91.7679   13.2367 C.3     1  UNL1        0.0457
      2 C          66.5146   92.7602   12.5775 C.3     1  UNL1        0.0712
      3 N          67.8057   93.1461   13.2366 N.3     1  UNL1       -0.2974
      4 C          68.1853   92.5397   14.5550 C.3     1  UNL1        0.0689
      5 C          67.2738   91.5473   15.2142 C.3     1  UNL1        0.0212
      6 C          65.9829   91.1614   14.5551 C.3     1  UNL1        0.0239
      7 C          64.6919   90.7756   13.8960 C.3     1  UNL1        0.0083
      8 H          67.7752   94.1562   13.3750 H       1  UNL1        0.1232
      9 C          66.2899   92.0845   13.4132 C.ar    1  UNL1       -0.0226
     10 C          65.8528   93.5183   13.4695 C.ar    1  UNL1       -0.0043
     11 C          66.1598   94.4414   12.3277 C.ar    1  UNL1       -0.0003
     12 C          66.9039   93.9306   11.1296 C.ar    1  UNL1       -0.0000
     13 C          67.2110   94.8536    9.9878 C.ar    1  UNL1       -0.0000
     14 C          67.9551   94.3429    8.7898 C.ar    1  UNL1       -0.0000
     15 C          68.3922   92.9091    8.7335 C.ar    1  UNL1       -0.0000
     16 C          68.0852   91.9860    9.8753 C.ar    1  UNL1       -0.0000
     17 C          67.3411   92.4968   11.0734 C.ar    1  UNL1       -0.0003
     18 C          67.0340   91.5738   12.2152 C.ar    1  UNL1       -0.0043
     19 C          64.6387   91.8953   12.0949 C.3     1  UNL1        0.1438
     20 C          62.7864   90.8286   10.6182 C.3     1  UNL1        0.1741
     21 O          63.5711   90.8605   11.8961 O.3     1  UNL1       -0.3510
@<TRIPOS>BOND
     1    20    21    1
     2    21    19    1
     3     1    19    1
     4     1     2    1
     5     2     3    1
     6     3     4    1
     7     4     5    1
     8     5     6    1
     9     6     9    1
    10     9    10   ar
    11    10    11   ar
    12    11    12   ar
    13    12    13   ar
    14    13    14   ar
    15    14    15   ar
    16    15    16   ar
    17    16    17   ar
    18    17    18   ar
    19     6     7    1
    20     6     1    1
    21    18     9   ar
    22     7     1    1
    23    17    12   ar
    24     3     8    1
@<TRIPOS>MOLECULE
*****
 21 24 0 0 0
SMALL
GASTEIGER

@<TRIPOS>ATOM
      1 C          64.9673   90.9659   13.8055 C.3     1  UNL1        0.0457
      2 C          63.9782   90.0705   14.4909 C.3     1  UNL1        0.0712
      3 N          62.6764   89.7405   13.8226 N.3     1  UNL1       -0.2974
      4 C          62.3638   90.3060   12.4688 C.3     1  UNL1        0.0689
      5 C          63.3530   91.2015   11.7834 C.3     1  UNL1        0.0212
      6 C          64.6547   91.5314   12.4517 C.3     1  UNL1        0.0239
      7 C          65.9564   91.8614   13.1201 C.3     1  UNL1        0.0083
      8 H          61.9357   90.0528   14.4503 H       1  UNL1        0.1232
      9 C          64.2641   90.6879   13.6291 C.ar    1  UNL1       -0.0226
     10 C          63.6814   91.3314   14.8523 C.ar    1  UNL1       -0.0043
     11 C          63.2908   90.4879   16.0297 C.ar    1  UNL1       -0.0003
     12 C          63.4830   89.0009   15.9837 C.ar    1  UNL1       -0.0000
     13 C          63.0924   88.1575   17.1609 C.ar    1  UNL1       -0.0000
     14 C          63.2846   86.6705   17.1149 C.ar    1  UNL1       -0.0000
     15 C          63.8673   86.0271   15.8917 C.ar    1  UNL1       -0.0000
     16 C          64.2579   86.8706   14.7143 C.ar    1  UNL1       -0.0000
     17 C          64.0657   88.3575   14.7603 C.ar    1  UNL1       -0.0003
     18 C          64.4563   89.2010   13.5831 C.ar    1  UNL1       -0.0043
     19 C          65.8993   90.8300   14.9729 C.3     1  UNL1        0.1438
     20 C          67.6815   92.3544   16.0909 C.3     1  UNL1        0.1741
     21 O          67.2429   91.4962   14.9415 O.3     1  UNL1       -0.3510
@<TRIPOS>BOND
     1    20    21    1
     2    21    19    1
     3     1    19    1
     4     1     2    1
     5     2     3    1
     6     3     4    1
     7     4     5    1
     8     5     6    1
     9     6     9    1
    10     9    10   ar
    11    10    11   ar
    12    11    12   ar
    13    12    13   ar
    14    13    14   ar
    15    14    15   ar
    16    15    16   ar
    17    16    17   ar
    18    17    18   ar
    19     6     7    1
    20     6     1    1
    21    18     9   ar
    22     7     1    1
    23    17    12   ar
    24     3     8    1
@<TRIPOS>MOLECULE
*****
 21 24 0 0 0
SMALL
GASTEIGER

@<TRIPOS>ATOM
      1 C          62.9391   84.4034   11.3129 C.3     1  UNL1        0.0457
      2 C          63.1016   84.0341   12.7576 C.3     1  UNL1        0.0712
      3 N          64.0078   82.9033   13.1453 N.3     1  UNL1       -0.2974
      4 C          64.7514   82.1419   12.0884 C.3     1  UNL1        0.0689
      5 C          64.5889   82.5112   10.6436 C.3     1  UNL1        0.0212
      6 C          63.6827   83.6419   10.2559 C.3     1  UNL1        0.0239
      7 C          62.7766   84.7726    9.8682 C.3     1  UNL1        0.0083
      8 H          63.4346   82.2258   13.6481 H       1  UNL1        0.1232
      9 C          63.3472   83.8684   11.7003 C.ar    1  UNL1       -0.0226
     10 C          62.3783   82.9593   12.3966 C.ar    1  UNL1       -0.0043
     11 C          62.0428   83.1858   13.8410 C.ar    1  UNL1       -0.0003
     12 C          62.6761   84.3213   14.5890 C.ar    1  UNL1       -0.0000
     13 C          62.3406   84.5477   16.0333 C.ar    1  UNL1       -0.0000
     14 C          62.9740   85.6833   16.7813 C.ar    1  UNL1       -0.0000
     15 C          63.9429   86.5923   16.0850 C.ar    1  UNL1       -0.0000
     16 C          64.2784   86.3659   14.6406 C.ar    1  UNL1       -0.0000
     17 C          63.6450   85.2303   13.8926 C.ar    1  UNL1       -0.0003
     18 C          63.9805   85.0039   12.4483 C.ar    1  UNL1       -0.0043
     19 C          61.9865   85.4958   11.6993 C.3     1  UNL1        0.1438
     20 C          60.5638   87.5108   10.8836 C.3     1  UNL1        0.1741
     21 O          61.1155   86.1344   10.6583 O.3     1  UNL1       -0.3510
@<TRIPOS>BOND
     1    20    21    1
     2    21    19    1
     3     1    19    1
     4     1     2    1
     5     2     3    1
     6     3     4    1
     7     4     5    1
     8     5     6    1
     9     6     9    1
    10     9    10   ar
    11    10    11   ar
    12    11    12   ar
    13    12    13   ar
    14    13    14   ar
    15    14    15   ar
    16    15    16   ar
    17    16    17   ar
    18    17    18   ar
    19     6     7    1
    20     6     1    1
    21    18     9   ar
    22     7     1    1
    23    17    12   ar
    24     3     8    1
@<TRIPOS>MOLECULE
*****
 21 24 0 0 0
SMALL
GASTEIGER

@<TRIPOS>ATOM
      1 C          65.7198   91.8231   14.3306 C.3     1  UNL1        0.0457
      2 C          66.7915   92.3058   13.3988 C.3     1  UNL1        0.0712
      3 N          67.9476   93.0990   13.9320 N.3     1  UNL1       -0.2974
      4 C          68.0320   93.4094   15.3971 C.3     1  UNL1        0.0689
      5 C          66.9603   92.9265   16.3290 C.3     1  UNL1        0.0212
      6 C          65.8042   92.1334   15.7958 C.3     1  UNL1        0.0239
      7 C          64.6482   91.3403   15.2625 C.3     1  UNL1        0.0083
      8 H          67.9424   93.9933   13.4414 H       1  UNL1        0.1232
      9 C          66.3742   92.2330   14.4118 C.ar    1  UNL1       -0.0226
     10 C          67.4408   91.2756   13.9693 C.ar    1  UNL1       -0.0043
     11 C          68.0108   91.3752   12.5853 C.ar    1  UNL1       -0.0003
     12 C          67.5142   92.4321   11.6439 C.ar    1  UNL1       -0.0000
     13 C          68.0841   92.5317   10.2600 C.ar    1  UNL1       -0.0000
     14 C          67.5874   93.5886    9.3186 C.ar    1  UNL1       -0.0000
     15 C          66.5209   94.5460    9.7611 C.ar    1  UNL1       -0.0000
     16 C          65.9509   94.4464   11.1451 C.ar    1  UNL1       -0.0000
     17 C          66.4475   93.3895   12.0865 C.ar    1  UNL1       -0.0003
     18 C          65.8776   93.2899   13.4704 C.ar    1  UNL1       -0.0043
     19 C          65.0036   91.1859   13.1768 C.3     1  UNL1        0.1438
     20 C          63.2307   89.5145   12.2752 C.3     1  UNL1        0.1741
     21 O          63.9480   90.1505   13.4288 O.3     1  UNL1       -0.3510
@<TRIPOS>BOND
     1    20    21    1
     2    21    19    1
     3     1    19    1
     4     1     2    1
     5     2     3    1
     6     3     4    1
     7     4     5    1
     8     5     6    1
     9     6     9    1
    10     9    10   ar
    11    10    11   ar
    12    11    12   ar
    13    12    13   ar
    14    13    14   ar
    15    14    15   ar
    16    15    16   ar
    17    16    17   ar
    18    17    18   ar
    19     6     7    1
    20     6     1    1
    21    18     9   ar
    22     7     1    1
    23    17    12   ar
    24     3     8    1
@<TRIPOS>MOLECULE
*****
 21 24 0 0 0
SMALL
GASTEIGER

@<TRIPOS>ATOM
      1 C          61.5301   86.2099    8.6069 C.3     1  UNL1        0.0457
      2 C          61.4854   87.0991    9.8140 C.3     1  UNL1        0.0712
      3 N          60.2234   87.8334   10.1583 N.3     1  UNL1       -0.2974
      4 C          59.0063   87.6783    9.2955 C.3     1  UNL1        0.0689
      5 C          59.0510   86.7889    8.0884 C.3     1  UNL1        0.0212
      6 C          60.3129   86.0548    7.7441 C.3     1  UNL1        0.0239
      7 C          61.5748   85.3206    7.3998 C.3     1  UNL1        0.0083
      8 H          60.4538   88.8270   10.1666 H       1  UNL1        0.1232
      9 C          60.9899   86.6577    8.9392 C.ar    1  UNL1       -0.0226
     10 C          61.1515   85.8533   10.1948 C.ar    1  UNL1       -0.0043
     11 C          61.8285   86.4563   11.3900 C.ar    1  UNL1       -0.0003
     12 C          62.3437   87.8637   11.3293 C.ar    1  UNL1       -0.0000
     13 C          63.0207   88.4667   12.5243 C.ar    1  UNL1       -0.0000
     14 C          63.5359   89.8742   12.4637 C.ar    1  UNL1       -0.0000
     15 C          63.3742   90.6786   11.2081 C.ar    1  UNL1       -0.0000
     16 C          62.6973   90.0756   10.0129 C.ar    1  UNL1       -0.0000
     17 C          62.1820   88.6682   10.0736 C.ar    1  UNL1       -0.0003
     18 C          61.5051   88.0652    8.8786 C.ar    1  UNL1       -0.0043
     19 C          62.9614   85.8755    8.9063 C.3     1  UNL1        0.1438
     20 C          63.8700   83.6116    9.8001 C.3     1  UNL1        0.1741
     21 O          63.4775   84.4906    8.6499 O.3     1  UNL1       -0.3510
@<TRIPOS>BOND
     1    20    21    1
     2    21    19    1
     3     1    19    1
     4     1     2    1
     5     2     3    1
     6     3     4    1
     7     4     5    1
     8     5     6    1
     9     6     9    1
    10     9    10   ar
    11    10    11   ar
    12    11    12   ar
    13    12    13   ar
    14    13    14   ar
    15    14    15   ar
    16    15    16   ar
    17    16    17   ar
    18    17    18   ar
    19     6     7    1
    20     6     1    1
    21    18     9   ar
    22     7     1    1
    23    17    12   ar
    24     3     8    1
@<TRIPOS>MOLECULE
*****
 21 24 0 0 0
SMALL
GASTEIGER

@<TRIPOS>ATOM
      1 C          66.9590   92.0937   13.9113 C.3     1  UNL1        0.0457
      2 C          66.5371   92.7367   12.6235 C.3     1  UNL1        0.0712
      3 N          65.2227   92.3731   11.9989 N.3     1  UNL1       -0.2974
      4 C          64.3301   91.3664   12.6623 C.3     1  UNL1        0.0689
      5 C          64.7521   90.7234   13.9501 C.3     1  UNL1        0.0212
      6 C          66.0665   91.0870   14.5746 C.3     1  UNL1        0.0239
      7 C          67.3809   91.4507   15.1991 C.3     1  UNL1        0.0083
      8 H          65.4289   92.0146   11.0665 H       1  UNL1        0.1232
      9 C          66.3382   92.0395   13.4481 C.ar    1  UNL1       -0.0226
     10 C          65.8838   93.4657   13.5457 C.ar    1  UNL1       -0.0043
     11 C          66.1556   94.4182   12.4191 C.ar    1  UNL1       -0.0003
     12 C          66.8817   93.9444   11.1951 C.ar    1  UNL1       -0.0000
     13 C          67.1535   94.8968   10.0686 C.ar    1  UNL1       -0.0000
     14 C          67.8797   94.4231    8.8446 C.ar    1  UNL1       -0.0000
     15 C          68.3341   92.9970    8.7470 C.ar    1  UNL1       -0.0000
     16 C          68.0623   92.0445    9.8736 C.ar    1  UNL1       -0.0000
     17 C          67.3362   92.5182   11.0976 C.ar    1  UNL1       -0.0003
     18 C          67.0644   91.5658   12.2241 C.ar    1  UNL1       -0.0043
     19 C          68.2332   92.8850   13.8889 C.3     1  UNL1        0.1438
     20 C          69.1532   94.2090   15.9262 C.3     1  UNL1        0.1741
     21 O          69.0975   92.9497   15.1132 O.3     1  UNL1       -0.3510
@<TRIPOS>BOND
     1    20    21    1
     2    21    19    1
     3     1    19    1
     4     1     2    1
     5     2     3    1
     6     3     4    1
     7     4     5    1
     8     5     6    1
     9     6     9    1
    10     9    10   ar
    11    10    11   ar
    12    11    12   ar
    13    12    13   ar
    14    13    14   ar
    15    14    15   ar
    16    15    16   ar
    17    16    17   ar
    18    17    18   ar
    19     6     7    1
    20     6     1    1
    21    18     9   ar
    22     7     1    1
    23    17    12   ar
    24     3     8    1
