@<TRIPOS>MOLECULE
*****
 26 27 0 0 0
SMALL
GASTEIGER

@<TRIPOS>ATOM
      1 C          63.4080   90.1113   16.0331 C.3     1  UNL1        0.0886
      2 N          63.3587   90.7969   14.6998 N.pl3   1  UNL1       -0.3130
      3 H          62.5008   90.8915   14.2263 H       1  UNL1        0.1487
      4 C          64.6167   91.3385   14.0880 C.ar    1  UNL1        0.1599
      5 N          64.7153   92.0875   12.7921 N.ar    1  UNL1       -0.2227
      6 C          66.1564   92.4380   12.5678 C.ar    1  UNL1        0.1073
      7 C          66.9485   91.9057   13.7250 C.ar    1  UNL1        0.0588
      8 S          65.9969   91.2261   14.6645 S.2     1  UNL1       -0.0512
      9 C          66.7085   93.1891   11.3926 C.ar    1  UNL1        0.0995
     10 C          67.4395   92.4537   10.3087 C.ar    1  UNL1        0.0207
     11 C          67.9916   93.2048    9.1336 C.ar    1  UNL1        0.0032
     12 C          67.8126   94.6913    9.0423 C.ar    1  UNL1        0.0207
     13 C          67.0816   95.4267   10.1261 C.ar    1  UNL1        0.0989
     14 N          66.5296   94.6756   11.3013 N.ar    1  UNL1       -0.2423
     15 C          63.4691   88.6143   16.1048 C.3     1  UNL1        0.0213
     16 C          62.8057   87.8900   17.2385 C.3     1  UNL1        0.0032
     17 C          63.0658   86.4278   17.4489 C.3     1  UNL1        0.0189
     18 C          63.4206   85.5537   16.2827 C.3     1  UNL1        0.0925
     19 N          62.3371   84.8853   15.4894 N.3     1  UNL1       -0.1692
     20 H          61.7777   84.3465   16.1507 H       1  UNL1        0.1499
     21 S          62.6936   83.9568   14.3667 S.O2    1  UNL1        0.0990
     22 O          62.4217   85.0500   13.3762 O.2     1  UNL1       -0.1411
     23 O          62.9656   82.8636   15.3571 O.2     1  UNL1       -0.1411
     24 C          62.2690   81.7642   13.0391 C.3     1  UNL1        0.1161
     25 N          63.0502   83.0282   13.2439 N.3     1  UNL1       -0.1426
     26 C          64.1880   83.3637   12.3258 C.3     1  UNL1        0.1161
@<TRIPOS>BOND
     1    24    25    1
     2    25    26    1
     3    25    21    1
     4    21    22    2
     5    21    23    2
     6    21    19    1
     7    19    18    1
     8    18    17    1
     9    17    16    1
    10    16    15    1
    11    15     1    1
    12     1     2    1
    13     2     4    1
    14     4     5   ar
    15     5     6   ar
    16     6     9    1
    17     9    10   ar
    18    10    11   ar
    19    11    12   ar
    20    12    13   ar
    21    13    14   ar
    22     6     7   ar
    23     7     8   ar
    24     8     4   ar
    25    14     9   ar
    26    19    20    1
    27     2     3    1
@<TRIPOS>MOLECULE
*****
 26 27 0 0 0
SMALL
GASTEIGER

@<TRIPOS>ATOM
      1 C          63.9758   89.9202   14.9396 C.3     1  UNL1        0.0886
      2 N          62.8503   90.5153   14.1464 N.pl3   1  UNL1       -0.3130
      3 H          62.2164   91.1326   14.5781 H       1  UNL1        0.1487
      4 C          62.6905   90.1697   12.6955 C.ar    1  UNL1        0.1599
      5 N          61.9023   89.0183   12.1450 N.ar    1  UNL1       -0.2227
      6 C          62.0156   89.0519   10.6496 C.ar    1  UNL1        0.1073
      7 C          62.8737   90.2240   10.2760 C.ar    1  UNL1        0.0588
      8 S          63.2908   90.9149   11.5403 S.2     1  UNL1       -0.0512
      9 C          61.3819   88.0833    9.6955 C.ar    1  UNL1        0.0995
     10 C          62.1099   86.8319    9.3032 C.ar    1  UNL1        0.0207
     11 C          61.4762   85.8634    8.3491 C.ar    1  UNL1        0.0032
     12 C          60.1144   86.1463    7.7872 C.ar    1  UNL1        0.0207
     13 C          59.3864   87.3977    8.1796 C.ar    1  UNL1        0.0989
     14 N          60.0201   88.3662    9.1337 N.ar    1  UNL1       -0.2423
     15 C          63.8404   88.5421   15.5162 C.3     1  UNL1        0.0213
     16 C          63.0639   88.3318   16.7822 C.3     1  UNL1        0.0032
     17 C          62.8980   86.9490   17.3394 C.3     1  UNL1        0.0189
     18 C          63.3222   85.7588   16.5310 C.3     1  UNL1        0.0925
     19 N          62.2942   84.9320   15.8172 N.3     1  UNL1       -0.1692
     20 H          61.8892   84.3029   16.5106 H       1  UNL1        0.1499
     21 S          62.6944   84.0851   14.6457 S.O2    1  UNL1        0.0990
     22 O          62.6957   82.8697   15.5247 O.2     1  UNL1       -0.1411
     23 O          62.6931   85.3006   13.7667 O.2     1  UNL1       -0.1411
     24 C          62.3491   81.9716   13.1748 C.3     1  UNL1        0.1161
     25 N          63.0946   83.2383   13.4741 N.3     1  UNL1       -0.1426
     26 C          64.2404   83.6581   12.6018 C.3     1  UNL1        0.1161
@<TRIPOS>BOND
     1    24    25    1
     2    25    26    1
     3    25    21    1
     4    21    22    2
     5    21    23    2
     6    21    19    1
     7    19    18    1
     8    18    17    1
     9    17    16    1
    10    16    15    1
    11    15     1    1
    12     1     2    1
    13     2     4    1
    14     4     5   ar
    15     5     6   ar
    16     6     9    1
    17     9    10   ar
    18    10    11   ar
    19    11    12   ar
    20    12    13   ar
    21    13    14   ar
    22     6     7   ar
    23     7     8   ar
    24     8     4   ar
    25    14     9   ar
    26    19    20    1
    27     2     3    1
@<TRIPOS>MOLECULE
*****
 26 27 0 0 0
SMALL
GASTEIGER

@<TRIPOS>ATOM
      1 C          64.4539   90.3101   14.8636 C.3     1  UNL1        0.0886
      2 N          63.0670   90.4195   14.3027 N.pl3   1  UNL1       -0.3130
      3 H          62.3147   90.6549   14.8925 H       1  UNL1        0.1487
      4 C          62.8263   90.1701   12.8433 C.ar    1  UNL1        0.1599
      5 N          62.0466   89.0288   12.2607 N.ar    1  UNL1       -0.2227
      6 C          62.0616   89.1715   10.7676 C.ar    1  UNL1        0.1073
      7 C          62.8505   90.4011   10.4274 C.ar    1  UNL1        0.0588
      8 S          63.3231   91.0183   11.7102 S.2     1  UNL1       -0.0512
      9 C          61.4031   88.2470    9.7868 C.ar    1  UNL1        0.0995
     10 C          62.0091   86.9058    9.4972 C.ar    1  UNL1        0.0207
     11 C          61.3507   85.9813    8.5165 C.ar    1  UNL1        0.0032
     12 C          60.0863   86.3981    7.8255 C.ar    1  UNL1        0.0207
     13 C          59.4803   87.7393    8.1151 C.ar    1  UNL1        0.0989
     14 N          60.1387   88.6637    9.0958 N.ar    1  UNL1       -0.2423
     15 C          65.3129   91.5339   14.9839 C.3     1  UNL1        0.0213
     16 C          66.7403   91.4965   14.5244 C.3     1  UNL1        0.0032
     17 C          67.2970   92.6288   13.7134 C.3     1  UNL1        0.0189
     18 C          66.4057   93.7599   13.2935 C.3     1  UNL1        0.0925
     19 N          65.7609   93.7437   11.9393 N.3     1  UNL1       -0.1692
     20 H          65.2195   92.8812   11.8813 H       1  UNL1        0.1499
     21 S          66.6092   93.8064   10.7039 S.O2    1  UNL1        0.0990
     22 O          66.8866   95.2567   10.9680 O.2     1  UNL1       -0.1411
     23 O          66.3318   92.3561   10.4399 O.2     1  UNL1       -0.1411
     24 C          68.3825   92.7362    9.1355 C.3     1  UNL1        0.1161
     25 N          67.4575   93.8691    9.4685 N.3     1  UNL1       -0.1426
     26 C          67.3809   95.0647    8.5659 C.3     1  UNL1        0.1161
@<TRIPOS>BOND
     1    24    25    1
     2    25    26    1
     3    25    21    1
     4    21    22    2
     5    21    23    2
     6    21    19    1
     7    19    18    1
     8    18    17    1
     9    17    16    1
    10    16    15    1
    11    15     1    1
    12     1     2    1
    13     2     4    1
    14     4     5   ar
    15     5     6   ar
    16     6     9    1
    17     9    10   ar
    18    10    11   ar
    19    11    12   ar
    20    12    13   ar
    21    13    14   ar
    22     6     7   ar
    23     7     8   ar
    24     8     4   ar
    25    14     9   ar
    26    19    20    1
    27     2     3    1
@<TRIPOS>MOLECULE
*****
 26 27 0 0 0
SMALL
GASTEIGER

@<TRIPOS>ATOM
      1 C          61.8243   81.5503   13.5786 C.3     1  UNL1        0.0886
      2 N          62.2791   82.3013   14.7949 N.pl3   1  UNL1       -0.3130
      3 H          62.0057   81.9987   15.6910 H       1  UNL1        0.1487
      4 C          63.1503   83.5132   14.6458 C.ar    1  UNL1        0.1599
      5 N          62.6860   84.8945   14.2905 N.ar    1  UNL1       -0.2227
      6 C          63.8876   85.7916   14.2509 C.ar    1  UNL1        0.1073
      7 C          65.0945   84.9647   14.5819 C.ar    1  UNL1        0.0588
      8 S          64.6389   83.5565   14.8259 S.2     1  UNL1       -0.0512
      9 C          63.8830   87.2581   13.9358 C.ar    1  UNL1        0.0995
     10 C          64.4668   88.2367   14.9112 C.ar    1  UNL1        0.0207
     11 C          64.4622   89.7032   14.5961 C.ar    1  UNL1        0.0032
     12 C          63.8738   90.1911   13.3055 C.ar    1  UNL1        0.0207
     13 C          63.2899   89.2125   12.3300 C.ar    1  UNL1        0.0989
     14 N          63.2945   87.7461   12.6452 N.ar    1  UNL1       -0.2423
     15 C          62.8347   80.9817   12.6269 C.3     1  UNL1        0.0213
     16 C          63.0760   81.6463   11.3040 C.3     1  UNL1        0.0032
     17 C          64.0481   82.7842   11.2026 C.3     1  UNL1        0.0189
     18 C          63.6337   84.0685   10.5478 C.3     1  UNL1        0.0925
     19 N          62.4367   84.8168   11.0549 N.3     1  UNL1       -0.1692
     20 H          61.7463   84.1174   11.3282 H       1  UNL1        0.1499
     21 S          61.7316   85.7961   10.1640 S.O2    1  UNL1        0.0990
     22 O          62.4876   85.2653    8.9822 O.2     1  UNL1       -0.1411
     23 O          60.9756   86.3269   11.3458 O.2     1  UNL1       -0.1411
     24 C          61.1462   88.2477    9.5340 C.3     1  UNL1        0.1161
     25 N          61.0265   86.7754    9.2731 N.3     1  UNL1       -0.1426
     26 C          60.2017   86.2825    8.1213 C.3     1  UNL1        0.1161
@<TRIPOS>BOND
     1    24    25    1
     2    25    26    1
     3    25    21    1
     4    21    22    2
     5    21    23    2
     6    21    19    1
     7    19    18    1
     8    18    17    1
     9    17    16    1
    10    16    15    1
    11    15     1    1
    12     1     2    1
    13     2     4    1
    14     4     5   ar
    15     5     6   ar
    16     6     9    1
    17     9    10   ar
    18    10    11   ar
    19    11    12   ar
    20    12    13   ar
    21    13    14   ar
    22     6     7   ar
    23     7     8   ar
    24     8     4   ar
    25    14     9   ar
    26    19    20    1
    27     2     3    1
@<TRIPOS>MOLECULE
*****
 26 27 0 0 0
SMALL
GASTEIGER

@<TRIPOS>ATOM
      1 C          60.6225   90.3966   11.1574 C.3     1  UNL1        0.0886
      2 N          59.8716   89.1004   11.2354 N.pl3   1  UNL1       -0.3130
      3 H          58.9621   89.0803   11.6118 H       1  UNL1        0.1487
      4 C          60.5064   87.8349   10.7400 C.ar    1  UNL1        0.1599
      5 N          61.3875   86.9196   11.5374 N.ar    1  UNL1       -0.2227
      6 C          61.7972   85.7815   10.6504 C.ar    1  UNL1        0.1073
      7 C          61.1693   85.9933    9.3048 C.ar    1  UNL1        0.0588
      8 S          60.3715   87.2624    9.3601 S.2     1  UNL1       -0.0512
      9 C          62.6798   84.6331   11.0406 C.ar    1  UNL1        0.0995
     10 C          63.4701   83.9052    9.9939 C.ar    1  UNL1        0.0207
     11 C          64.3527   82.7569   10.3841 C.ar    1  UNL1        0.0032
     12 C          64.4451   82.3365   11.8210 C.ar    1  UNL1        0.0207
     13 C          63.6548   83.0644   12.8677 C.ar    1  UNL1        0.0989
     14 N          62.7722   84.2127   12.4775 N.ar    1  UNL1       -0.2423
     15 C          61.9347   90.4608   10.4336 C.3     1  UNL1        0.0213
     16 C          63.2189   90.4760   11.2087 C.3     1  UNL1        0.0032
     17 C          63.1899   90.5412   12.7069 C.3     1  UNL1        0.0189
     18 C          63.8825   89.4858   13.5172 C.3     1  UNL1        0.0925
     19 N          63.6208   89.3790   14.9903 N.3     1  UNL1       -0.1692
     20 H          64.3822   89.8681   15.4608 H       1  UNL1        0.1499
     21 S          63.5082   88.0299   15.6361 S.O2    1  UNL1        0.0990
     22 O          62.9721   88.6709   16.8818 O.2     1  UNL1       -0.1411
     23 O          64.0443   87.3888   14.3904 O.2     1  UNL1       -0.1411
     24 C          64.0128   85.4813   15.6258 C.3     1  UNL1        0.1161
     25 N          63.3956   86.6807   16.2819 N.3     1  UNL1       -0.1426
     26 C          62.6659   86.5310   17.5838 C.3     1  UNL1        0.1161
@<TRIPOS>BOND
     1    24    25    1
     2    25    26    1
     3    25    21    1
     4    21    22    2
     5    21    23    2
     6    21    19    1
     7    19    18    1
     8    18    17    1
     9    17    16    1
    10    16    15    1
    11    15     1    1
    12     1     2    1
    13     2     4    1
    14     4     5   ar
    15     5     6   ar
    16     6     9    1
    17     9    10   ar
    18    10    11   ar
    19    11    12   ar
    20    12    13   ar
    21    13    14   ar
    22     6     7   ar
    23     7     8   ar
    24     8     4   ar
    25    14     9   ar
    26    19    20    1
    27     2     3    1
@<TRIPOS>MOLECULE
*****
 26 27 0 0 0
SMALL
GASTEIGER

@<TRIPOS>ATOM
      1 C          61.3780   86.0975   10.7919 C.3     1  UNL1        0.0886
      2 N          60.7770   87.3948   11.2454 N.pl3   1  UNL1       -0.3130
      3 H          59.8346   87.4285   11.5283 H       1  UNL1        0.1487
      4 C          61.6118   88.6408   11.2679 C.ar    1  UNL1        0.1599
      5 N          62.5719   89.0395   12.3492 N.ar    1  UNL1       -0.2227
      6 C          63.1866   90.3520   11.9627 C.ar    1  UNL1        0.1073
      7 C          62.6064   90.7646   10.6424 C.ar    1  UNL1        0.0588
      8 S          61.6332   89.7071   10.2130 S.2     1  UNL1       -0.0512
      9 C          64.2031   91.1175   12.7569 C.ar    1  UNL1        0.0995
     10 C          65.0093   92.1984   12.0999 C.ar    1  UNL1        0.0207
     11 C          66.0257   92.9639   12.8942 C.ar    1  UNL1        0.0032
     12 C          66.2359   92.6485   14.3455 C.ar    1  UNL1        0.0207
     13 C          65.4297   91.5676   15.0026 C.ar    1  UNL1        0.0989
     14 N          64.4133   90.8022   14.2083 N.ar    1  UNL1       -0.2423
     15 C          62.3048   85.3428   11.6982 C.3     1  UNL1        0.0213
     16 C          62.9009   84.0423   11.2470 C.3     1  UNL1        0.0032
     17 C          62.6797   82.7964   12.0524 C.3     1  UNL1        0.0189
     18 C          63.3792   82.6193   13.3675 C.3     1  UNL1        0.0925
     19 N          62.7473   83.1308   14.6280 N.3     1  UNL1       -0.1692
     20 H          61.7414   83.1612   14.4617 H       1  UNL1        0.1499
     21 S          63.1372   84.4735   15.1711 S.O2    1  UNL1        0.0990
     22 O          64.5777   84.1728   14.8802 O.2     1  UNL1       -0.1411
     23 O          61.6967   84.7741   15.4621 O.2     1  UNL1       -0.1411
     24 C          63.0455   86.2463   17.0682 C.3     1  UNL1        0.1161
     25 N          63.5271   85.8162   15.7143 N.3     1  UNL1       -0.1426
     26 C          64.3986   86.7289   14.9035 C.3     1  UNL1        0.1161
@<TRIPOS>BOND
     1    24    25    1
     2    25    26    1
     3    25    21    1
     4    21    22    2
     5    21    23    2
     6    21    19    1
     7    19    18    1
     8    18    17    1
     9    17    16    1
    10    16    15    1
    11    15     1    1
    12     1     2    1
    13     2     4    1
    14     4     5   ar
    15     5     6   ar
    16     6     9    1
    17     9    10   ar
    18    10    11   ar
    19    11    12   ar
    20    12    13   ar
    21    13    14   ar
    22     6     7   ar
    23     7     8   ar
    24     8     4   ar
    25    14     9   ar
    26    19    20    1
    27     2     3    1
@<TRIPOS>MOLECULE
*****
 26 27 0 0 0
SMALL
GASTEIGER

@<TRIPOS>ATOM
      1 C          63.6161   85.8515   16.4355 C.3     1  UNL1        0.0886
      2 N          63.1236   84.5947   15.7814 N.pl3   1  UNL1       -0.3130
      3 H          62.6952   83.8931   16.3231 H       1  UNL1        0.1487
      4 C          63.2839   84.4068   14.3019 C.ar    1  UNL1        0.1599
      5 N          62.5070   85.1176   13.2336 N.ar    1  UNL1       -0.2227
      6 C          62.9922   84.6252   11.9023 C.ar    1  UNL1        0.1073
      7 C          64.0688   83.6101   12.1479 C.ar    1  UNL1        0.0588
      8 S          64.2491   83.4751   13.6308 S.2     1  UNL1       -0.0512
      9 C          62.4889   85.0699   10.5610 C.ar    1  UNL1        0.0995
     10 C          63.2471   84.7089    9.3181 C.ar    1  UNL1        0.0207
     11 C          62.7439   85.1536    7.9769 C.ar    1  UNL1        0.0032
     12 C          61.4824   85.9593    7.8785 C.ar    1  UNL1        0.0207
     13 C          60.7243   86.3203    9.1214 C.ar    1  UNL1        0.0989
     14 N          61.2275   85.8756   10.4626 N.ar    1  UNL1       -0.2423
     15 C          62.6408   86.9131   16.8501 C.3     1  UNL1        0.0213
     16 C          63.1357   88.1824   17.4777 C.3     1  UNL1        0.0032
     17 C          63.0321   89.4787   16.7301 C.3     1  UNL1        0.0189
     18 C          63.4976   89.5628   15.3066 C.3     1  UNL1        0.0925
     19 N          63.3494   90.8457   14.5436 N.3     1  UNL1       -0.1692
     20 H          62.4452   91.2400   14.8033 H       1  UNL1        0.1499
     21 S          63.4036   90.8374   13.0447 S.O2    1  UNL1        0.0990
     22 O          64.3820   91.9740   13.0738 O.2     1  UNL1       -0.1411
     23 O          62.4252   89.7008   13.0156 O.2     1  UNL1       -0.1411
     24 C          64.3099   91.8281   10.8204 C.3     1  UNL1        0.1161
     25 N          63.4579   90.8291   11.5457 N.3     1  UNL1       -0.1426
     26 C          62.6602   89.8217   10.7719 C.3     1  UNL1        0.1161
@<TRIPOS>BOND
     1    24    25    1
     2    25    26    1
     3    25    21    1
     4    21    22    2
     5    21    23    2
     6    21    19    1
     7    19    18    1
     8    18    17    1
     9    17    16    1
    10    16    15    1
    11    15     1    1
    12     1     2    1
    13     2     4    1
    14     4     5   ar
    15     5     6   ar
    16     6     9    1
    17     9    10   ar
    18    10    11   ar
    19    11    12   ar
    20    12    13   ar
    21    13    14   ar
    22     6     7   ar
    23     7     8   ar
    24     8     4   ar
    25    14     9   ar
    26    19    20    1
    27     2     3    1
@<TRIPOS>MOLECULE
*****
 26 27 0 0 0
SMALL
GASTEIGER

@<TRIPOS>ATOM
      1 C          60.6124   90.2801   11.4689 C.3     1  UNL1        0.0886
      2 N          59.8622   89.0638   11.0128 N.pl3   1  UNL1       -0.3130
      3 H          58.8780   89.0724   10.9897 H       1  UNL1        0.1487
      4 C          60.6115   87.8345   10.5919 C.ar    1  UNL1        0.1599
      5 N          61.3035   86.8674   11.5062 N.ar    1  UNL1       -0.2227
      6 C          61.9201   85.7916   10.6621 C.ar    1  UNL1        0.1073
      7 C          61.6092   86.0937    9.2261 C.ar    1  UNL1        0.0588
      8 S          60.8005   87.3563    9.1827 S.2     1  UNL1       -0.0512
      9 C          62.7091   84.6194   11.1657 C.ar    1  UNL1        0.0995
     10 C          63.5511   83.8189   10.2170 C.ar    1  UNL1        0.0207
     11 C          64.3401   82.6467   10.7206 C.ar    1  UNL1        0.0032
     12 C          64.2869   82.2751   12.1728 C.ar    1  UNL1        0.0207
     13 C          63.4448   83.0756   13.1215 C.ar    1  UNL1        0.0989
     14 N          62.6559   84.2477   12.6179 N.ar    1  UNL1       -0.2423
     15 C          62.0100   90.5254   10.9826 C.3     1  UNL1        0.0213
     16 C          63.1805   90.1129   11.8251 C.3     1  UNL1        0.0032
     17 C          63.5735   90.9347   13.0167 C.3     1  UNL1        0.0189
     18 C          64.9604   91.4975   13.1153 C.3     1  UNL1        0.0925
     19 N          65.2484   92.8768   12.6009 N.3     1  UNL1       -0.1692
     20 H          64.3660   93.2512   12.2521 H       1  UNL1        0.1499
     21 S          66.2627   93.0752   11.5139 S.O2    1  UNL1        0.0990
     22 O          67.3672   92.8455   12.5026 O.2     1  UNL1       -0.1411
     23 O          65.1583   93.3050   10.5252 O.2     1  UNL1       -0.1411
     24 C          68.2212   92.1639   10.0702 C.3     1  UNL1        0.1161
     25 N          67.2771   93.2737   10.4268 N.3     1  UNL1       -0.1426
     26 C          67.3474   94.5819    9.6964 C.3     1  UNL1        0.1161
@<TRIPOS>BOND
     1    24    25    1
     2    25    26    1
     3    25    21    1
     4    21    22    2
     5    21    23    2
     6    21    19    1
     7    19    18    1
     8    18    17    1
     9    17    16    1
    10    16    15    1
    11    15     1    1
    12     1     2    1
    13     2     4    1
    14     4     5   ar
    15     5     6   ar
    16     6     9    1
    17     9    10   ar
    18    10    11   ar
    19    11    12   ar
    20    12    13   ar
    21    13    14   ar
    22     6     7   ar
    23     7     8   ar
    24     8     4   ar
    25    14     9   ar
    26    19    20    1
    27     2     3    1
@<TRIPOS>MOLECULE
*****
 26 27 0 0 0
SMALL
GASTEIGER

@<TRIPOS>ATOM
      1 C          61.1130   89.5718    9.7431 C.3     1  UNL1        0.0886
      2 N          60.5906   88.4169   10.5452 N.pl3   1  UNL1       -0.3130
      3 H          59.7657   88.5173   11.0730 H       1  UNL1        0.1487
      4 C          61.3251   87.1091   10.5429 C.ar    1  UNL1        0.1599
      5 N          61.4774   86.1814   11.7118 N.ar    1  UNL1       -0.2227
      6 C          62.2827   84.9982   11.2627 C.ar    1  UNL1        0.1073
      7 C          62.6281   85.1947    9.8163 C.ar    1  UNL1        0.0588
      8 S          62.0363   86.4992    9.3715 S.2     1  UNL1       -0.0512
      9 C          62.6739   83.8247   12.1112 C.ar    1  UNL1        0.0995
     10 C          62.6824   82.4444   11.5241 C.ar    1  UNL1        0.0207
     11 C          63.0735   81.2709   12.3725 C.ar    1  UNL1        0.0032
     12 C          63.4562   81.4777   13.8080 C.ar    1  UNL1        0.0207
     13 C          63.4478   82.8580   14.3951 C.ar    1  UNL1        0.0989
     14 N          63.0566   84.0315   13.5467 N.ar    1  UNL1       -0.2423
     15 C          61.8697   90.6749   10.4217 C.3     1  UNL1        0.0213
     16 C          62.6497   90.3911   11.6711 C.3     1  UNL1        0.0032
     17 C          63.8217   91.2534   12.0358 C.3     1  UNL1        0.0189
     18 C          64.3275   91.2734   13.4478 C.3     1  UNL1        0.0925
     19 N          63.4201   90.8793   14.5752 N.3     1  UNL1       -0.1692
     20 H          63.5781   91.5490   15.3282 H       1  UNL1        0.1499
     21 S          63.5281   89.5119   15.1821 S.O2    1  UNL1        0.0990
     22 O          64.9123   89.3724   14.6212 O.2     1  UNL1       -0.1411
     23 O          62.1439   89.6515   15.7429 O.2     1  UNL1       -0.1411
     24 C          63.0237   87.8685   17.1302 C.3     1  UNL1        0.1161
     25 N          63.6361   88.1444   15.7890 N.3     1  UNL1       -0.1426
     26 C          64.3566   87.0528   15.0546 C.3     1  UNL1        0.1161
@<TRIPOS>BOND
     1    24    25    1
     2    25    26    1
     3    25    21    1
     4    21    22    2
     5    21    23    2
     6    21    19    1
     7    19    18    1
     8    18    17    1
     9    17    16    1
    10    16    15    1
    11    15     1    1
    12     1     2    1
    13     2     4    1
    14     4     5   ar
    15     5     6   ar
    16     6     9    1
    17     9    10   ar
    18    10    11   ar
    19    11    12   ar
    20    12    13   ar
    21    13    14   ar
    22     6     7   ar
    23     7     8   ar
    24     8     4   ar
    25    14     9   ar
    26    19    20    1
    27     2     3    1
