@<TRIPOS>MOLECULE
*****
 32 34 0 0 0
SMALL
GASTEIGER

@<TRIPOS>ATOM
      1 C          61.8895   87.1579    9.3648 C.ar    1  UNL1       -0.0179
      2 C          60.4445   87.4949    9.1446 C.ar    1  UNL1       -0.0008
      3 C          59.9001   88.8094    9.6198 C.ar    1  UNL1        0.0363
      4 C          60.8007   89.7868   10.3152 C.ar    1  UNL1        0.1347
      5 C          62.2456   89.4498   10.5354 C.ar    1  UNL1        0.0136
      6 C          62.7901   88.1353   10.0602 C.ar    1  UNL1       -0.0051
      7 C          63.1462   90.4273   11.2308 C.3     1  UNL1        0.0548
      8 C          64.0479   91.3181   10.4288 C.3     1  UNL1        0.0120
      9 C          64.9484   92.2955   11.1242 C.3     1  UNL1        0.0591
     10 C          64.9473   92.3822   12.6216 C.3     1  UNL1        0.1420
     11 O          65.8479   93.3596   13.3170 O.3     1  UNL1       -0.3818
     12 C          64.0456   91.4913   13.4238 C.3     1  UNL1        0.1642
     13 O          64.0444   91.5780   14.9213 O.3     1  UNL1       -0.3795
     14 C          63.1450   90.5139   12.7284 C.3     1  UNL1        0.1436
     15 O          62.2433   89.6231   13.5304 O.3     1  UNL1       -0.3816
     16 H          65.7242   93.2872   14.2764 H       1  UNL1        0.2104
     17 H          64.6786   92.2543   15.2065 H       1  UNL1        0.2105
     18 H          61.7323   89.0565   12.9314 H       1  UNL1        0.2105
     19 C          65.8502   93.1864   10.3220 C.3     1  UNL1        0.1396
     20 O          67.2460   93.4634   10.7963 O.3     1  UNL1       -0.3819
     21 H          67.2120   93.9692   11.6233 H       1  UNL1        0.2104
     22 O          60.2562   91.1013   10.7905 O.3     1  UNL1       -0.4717
     23 C          58.9890   91.1426   11.5920 C.3     1  UNL1        0.2525
     24 C          62.4339   85.8435    8.8896 C.3     1  UNL1        0.0526
     25 C          63.6561   82.7036   11.8725 C.ar    1  UNL1       -0.0222
     26 C          64.2036   82.6654   10.4765 C.ar    1  UNL1       -0.0046
     27 C          63.7962   83.7121    9.4822 C.ar    1  UNL1       -0.0043
     28 C          62.8413   84.7968    9.8839 C.ar    1  UNL1       -0.0178
     29 C          62.2938   84.8350   11.2799 C.ar    1  UNL1       -0.0043
     30 C          62.7012   83.7884   12.2742 C.ar    1  UNL1       -0.0046
     31 C          63.0335   80.7367   13.4516 C.3     1  UNL1        0.0050
     32 C          64.0635   81.6570   12.8668 C.3     1  UNL1        0.0264
@<TRIPOS>BOND
     1    31    32    1
     2    32    25    1
     3    25    26   ar
     4    26    27   ar
     5    27    28   ar
     6    28    24    1
     7    24     1    1
     8     1     2   ar
     9     2     3   ar
    10     3     4   ar
    11     4    22    1
    12    22    23    1
    13     4     5   ar
    14     7     5    1
    15     7     8    1
    16     8     9    1
    17     9    19    1
    18    19    20    1
    19     9    10    1
    20    10    11    1
    21    10    12    1
    22    12    13    1
    23    12    14    1
    24    14    15    1
    25     5     6   ar
    26    28    29   ar
    27    29    30   ar
    28    30    25   ar
    29     6     1   ar
    30    14     7    1
    31    20    21    1
    32    11    16    1
    33    13    17    1
    34    15    18    1
@<TRIPOS>MOLECULE
*****
 32 34 0 0 0
SMALL
GASTEIGER

@<TRIPOS>ATOM
      1 C          61.9636   87.0178    9.4300 C.ar    1  UNL1       -0.0179
      2 C          60.5941   87.4347    8.9818 C.ar    1  UNL1       -0.0008
      3 C          60.0227   88.7449    9.4364 C.ar    1  UNL1        0.0363
      4 C          60.8207   89.6383   10.3392 C.ar    1  UNL1        0.1347
      5 C          62.1901   89.2215   10.7874 C.ar    1  UNL1        0.0136
      6 C          62.7616   87.9112   10.3328 C.ar    1  UNL1       -0.0051
      7 C          62.9881   90.1149   11.6902 C.3     1  UNL1        0.0548
      8 C          63.0494   89.8321   13.1620 C.3     1  UNL1        0.0120
      9 C          63.8474   90.7255   14.0648 C.3     1  UNL1        0.0591
     10 C          64.5841   91.9017   13.4958 C.3     1  UNL1        0.1420
     11 O          65.3820   92.7951   14.3986 O.3     1  UNL1       -0.3818
     12 C          64.5228   92.1845   12.0239 C.3     1  UNL1        0.1642
     13 O          65.2595   93.3607   11.4549 O.3     1  UNL1       -0.3795
     14 C          63.7248   91.2911   11.1211 C.3     1  UNL1        0.1436
     15 O          63.6635   91.5739    9.6493 O.3     1  UNL1       -0.3816
     16 H          65.7918   93.5012   13.8748 H       1  UNL1        0.2104
     17 H          65.7207   93.8292   12.1681 H       1  UNL1        0.2105
     18 H          63.1101   90.9064    9.2146 H       1  UNL1        0.2105
     19 C          63.9086   90.4426   15.5366 C.3     1  UNL1        0.1396
     20 O          63.5357   91.5105   16.5217 O.3     1  UNL1       -0.3819
     21 H          64.1764   92.2369   16.4692 H       1  UNL1        0.2104
     22 O          60.2492   90.9486   10.7938 O.3     1  UNL1       -0.4717
     23 C          59.0063   90.9740   11.6332 C.3     1  UNL1        0.2525
     24 C          62.5350   85.7076    8.9754 C.3     1  UNL1        0.0526
     25 C          63.6290   82.5596   11.9992 C.ar    1  UNL1       -0.0222
     26 C          62.6617   83.6463   12.3644 C.ar    1  UNL1       -0.0046
     27 C          62.2970   84.6957   11.3564 C.ar    1  UNL1       -0.0043
     28 C          62.8996   84.6583    9.9833 C.ar    1  UNL1       -0.0178
     29 C          63.8669   83.5715    9.6182 C.ar    1  UNL1       -0.0043
     30 C          64.2316   82.5222   10.6261 C.ar    1  UNL1       -0.0046
     31 C          62.9192   80.6939   13.6621 C.3     1  UNL1        0.0050
     32 C          63.9937   81.5103   13.0072 C.3     1  UNL1        0.0264
@<TRIPOS>BOND
     1    31    32    1
     2    32    25    1
     3    25    26   ar
     4    26    27   ar
     5    27    28   ar
     6    28    24    1
     7    24     1    1
     8     1     2   ar
     9     2     3   ar
    10     3     4   ar
    11     4    22    1
    12    22    23    1
    13     4     5   ar
    14     7     5    1
    15     7     8    1
    16     8     9    1
    17     9    19    1
    18    19    20    1
    19     9    10    1
    20    10    11    1
    21    10    12    1
    22    12    13    1
    23    12    14    1
    24    14    15    1
    25     5     6   ar
    26    28    29   ar
    27    29    30   ar
    28    30    25   ar
    29     6     1   ar
    30    14     7    1
    31    20    21    1
    32    11    16    1
    33    13    17    1
    34    15    18    1
@<TRIPOS>MOLECULE
*****
 32 34 0 0 0
SMALL
GASTEIGER

@<TRIPOS>ATOM
      1 C          63.8325   87.1421   15.5142 C.ar    1  UNL1       -0.0179
      2 C          63.0063   87.6081   16.6763 C.ar    1  UNL1       -0.0008
      3 C          62.8630   89.0751   16.9542 C.ar    1  UNL1        0.0363
      4 C          63.5458   90.0762   16.0702 C.ar    1  UNL1        0.1347
      5 C          64.3720   89.6103   14.9081 C.ar    1  UNL1        0.0136
      6 C          64.5153   88.1432   14.6301 C.ar    1  UNL1       -0.0051
      7 C          65.0548   90.6113   14.0241 C.3     1  UNL1        0.0548
      8 C          66.4351   91.0917   14.3616 C.3     1  UNL1        0.0120
      9 C          67.1179   92.0928   13.4775 C.3     1  UNL1        0.0591
     10 C          66.4205   92.6135   12.2559 C.3     1  UNL1        0.1420
     11 O          67.1033   93.6146   11.3719 O.3     1  UNL1       -0.3818
     12 C          65.0401   92.1331   11.9183 C.3     1  UNL1        0.1642
     13 O          64.3426   92.6538   10.6967 O.3     1  UNL1       -0.3795
     14 C          64.3573   91.1320   12.8024 C.3     1  UNL1        0.1436
     15 O          62.9770   90.6517   12.4649 O.3     1  UNL1       -0.3816
     16 H          66.5191   93.8446   10.6325 H       1  UNL1        0.2104
     17 H          64.9185   93.2875   10.2410 H       1  UNL1        0.2105
     18 H          62.6846   90.0124   13.1333 H       1  UNL1        0.2105
     19 C          68.4983   92.5732   13.8151 C.3     1  UNL1        0.1396
     20 O          69.6968   91.8514   13.2742 O.3     1  UNL1       -0.3819
     21 H          69.7371   90.9605   13.6558 H       1  UNL1        0.2104
     22 O          63.4025   91.5433   16.3482 O.3     1  UNL1       -0.4717
     23 C          64.5139   92.2907   17.0234 C.3     1  UNL1        0.2525
     24 C          63.9758   85.6751   15.2362 C.3     1  UNL1        0.0526
     25 C          63.5608   84.1310   11.0299 C.ar    1  UNL1       -0.0222
     26 C          62.7748   85.3305   11.4694 C.ar    1  UNL1       -0.0046
     27 C          62.9131   85.8452   12.8715 C.ar    1  UNL1       -0.0043
     28 C          63.8374   85.1604   13.8341 C.ar    1  UNL1       -0.0178
     29 C          64.6235   83.9608   13.3945 C.ar    1  UNL1       -0.0043
     30 C          64.4851   83.4461   11.9924 C.ar    1  UNL1       -0.0046
     31 C          63.1823   84.5731    8.4978 C.3     1  UNL1        0.0050
     32 C          63.4224   83.6163    9.6277 C.3     1  UNL1        0.0264
@<TRIPOS>BOND
     1    31    32    1
     2    32    25    1
     3    25    26   ar
     4    26    27   ar
     5    27    28   ar
     6    28    24    1
     7    24     1    1
     8     1     2   ar
     9     2     3   ar
    10     3     4   ar
    11     4    22    1
    12    22    23    1
    13     4     5   ar
    14     7     5    1
    15     7     8    1
    16     8     9    1
    17     9    19    1
    18    19    20    1
    19     9    10    1
    20    10    11    1
    21    10    12    1
    22    12    13    1
    23    12    14    1
    24    14    15    1
    25     5     6   ar
    26    28    29   ar
    27    29    30   ar
    28    30    25   ar
    29     6     1   ar
    30    14     7    1
    31    20    21    1
    32    11    16    1
    33    13    17    1
    34    15    18    1
@<TRIPOS>MOLECULE
*****
 32 34 0 0 0
SMALL
GASTEIGER

@<TRIPOS>ATOM
      1 C          63.8782   87.1222   15.5629 C.ar    1  UNL1       -0.0179
      2 C          63.3213   87.6587   16.8483 C.ar    1  UNL1       -0.0008
      3 C          63.1503   89.1375   17.0322 C.ar    1  UNL1        0.0363
      4 C          63.5362   90.0799   15.9308 C.ar    1  UNL1        0.1347
      5 C          64.0931   89.5434   14.6455 C.ar    1  UNL1        0.0136
      6 C          64.2641   88.0646   14.4615 C.ar    1  UNL1       -0.0051
      7 C          64.4790   90.4858   13.5441 C.3     1  UNL1        0.0548
      8 C          63.6303   90.5864   12.3114 C.3     1  UNL1        0.0120
      9 C          64.0162   91.5287   11.2100 C.3     1  UNL1        0.0591
     10 C          65.2507   92.3705   11.3413 C.3     1  UNL1        0.1420
     11 O          65.6366   93.3128   10.2399 O.3     1  UNL1       -0.3818
     12 C          66.0995   92.2699   12.5741 C.3     1  UNL1        0.1642
     13 O          67.3340   93.1117   12.7054 O.3     1  UNL1       -0.3795
     14 C          65.7136   91.3276   13.6755 C.3     1  UNL1        0.1436
     15 O          66.5622   91.2270   14.9082 O.3     1  UNL1       -0.3816
     16 H          66.4531   93.7769   10.4826 H       1  UNL1        0.2104
     17 H          67.4372   93.6602   11.9121 H       1  UNL1        0.2105
     18 H          66.1748   90.5773   15.5154 H       1  UNL1        0.2105
     19 C          63.1675   91.6292    9.9772 C.3     1  UNL1        0.1396
     20 O          62.0379   90.6658    9.7637 O.3     1  UNL1       -0.3819
     21 H          62.3940   89.7716    9.6431 H       1  UNL1        0.2104
     22 O          63.3652   91.5588   16.1148 O.3     1  UNL1       -0.4717
     23 C          64.3517   92.3310   16.9396 C.3     1  UNL1        0.2525
     24 C          64.0492   85.6434   15.3790 C.3     1  UNL1        0.0526
     25 C          63.7495   83.8378   11.2681 C.ar    1  UNL1       -0.0222
     26 C          64.7021   83.2610   12.2729 C.ar    1  UNL1       -0.0046
     27 C          64.8020   83.8629   13.6432 C.ar    1  UNL1       -0.0043
     28 C          63.9493   85.0415   14.0087 C.ar    1  UNL1       -0.0178
     29 C          62.9966   85.6183   13.0038 C.ar    1  UNL1       -0.0043
     30 C          62.8968   85.0164   11.6335 C.ar    1  UNL1       -0.0046
     31 C          63.3346   84.1063    8.7175 C.3     1  UNL1        0.0050
     32 C          63.6496   83.2359    9.8978 C.3     1  UNL1        0.0264
@<TRIPOS>BOND
     1    31    32    1
     2    32    25    1
     3    25    26   ar
     4    26    27   ar
     5    27    28   ar
     6    28    24    1
     7    24     1    1
     8     1     2   ar
     9     2     3   ar
    10     3     4   ar
    11     4    22    1
    12    22    23    1
    13     4     5   ar
    14     7     5    1
    15     7     8    1
    16     8     9    1
    17     9    19    1
    18    19    20    1
    19     9    10    1
    20    10    11    1
    21    10    12    1
    22    12    13    1
    23    12    14    1
    24    14    15    1
    25     5     6   ar
    26    28    29   ar
    27    29    30   ar
    28    30    25   ar
    29     6     1   ar
    30    14     7    1
    31    20    21    1
    32    11    16    1
    33    13    17    1
    34    15    18    1
@<TRIPOS>MOLECULE
*****
 32 34 0 0 0
SMALL
GASTEIGER

@<TRIPOS>ATOM
      1 C          61.8344   89.5544   10.8063 C.ar    1  UNL1       -0.0179
      2 C          60.9437   89.5374    9.5995 C.ar    1  UNL1       -0.0008
      3 C          60.5906   88.2340    8.9463 C.ar    1  UNL1        0.0363
      4 C          61.1281   86.9478    9.5000 C.ar    1  UNL1        0.1347
      5 C          62.0188   86.9648   10.7068 C.ar    1  UNL1        0.0136
      6 C          62.3719   88.2682   11.3600 C.ar    1  UNL1       -0.0051
      7 C          62.5563   85.6785   11.2605 C.3     1  UNL1        0.0548
      8 C          62.3903   85.3616   12.7171 C.3     1  UNL1        0.0120
      9 C          62.9279   84.0753   13.2708 C.3     1  UNL1        0.0591
     10 C          63.6314   83.1060   12.3678 C.3     1  UNL1        0.1420
     11 O          64.1689   81.8197   12.9215 O.3     1  UNL1       -0.3818
     12 C          63.7974   83.4229   10.9111 C.3     1  UNL1        0.1642
     13 O          64.5010   82.4536   10.0081 O.3     1  UNL1       -0.3795
     14 C          63.2599   84.7092   10.3574 C.3     1  UNL1        0.1436
     15 O          63.4259   85.0262    8.9007 O.3     1  UNL1       -0.3816
     16 H          64.5909   81.3128   12.2102 H       1  UNL1        0.2104
     17 H          64.7834   81.6804   10.5211 H       1  UNL1        0.2105
     18 H          63.0248   85.8885    8.7097 H       1  UNL1        0.2105
     19 C          62.7618   83.7583   14.7276 C.3     1  UNL1        0.1396
     20 O          62.4725   82.3518   15.1609 O.3     1  UNL1       -0.3819
     21 H          61.5975   82.0870   14.8364 H       1  UNL1        0.2104
     22 O          60.7750   85.6444    8.8468 O.3     1  UNL1       -0.4717
     23 C          60.2532   85.6273    7.4406 C.3     1  UNL1        0.2525
     24 C          62.1875   90.8578   11.4595 C.3     1  UNL1        0.0526
     25 C          65.8898   91.1721   13.9980 C.ar    1  UNL1       -0.0222
     26 C          64.7539   90.2948   14.4338 C.ar    1  UNL1       -0.0046
     27 C          63.5198   90.1900   13.5876 C.ar    1  UNL1       -0.0043
     28 C          63.4216   90.9626   12.3056 C.ar    1  UNL1       -0.0178
     29 C          64.5575   91.8399   11.8699 C.ar    1  UNL1       -0.0043
     30 C          65.7916   91.9447   12.7160 C.ar    1  UNL1       -0.0046
     31 C          67.2738   92.4108   15.8146 C.3     1  UNL1        0.0050
     32 C          67.1239   91.2769   14.8442 C.3     1  UNL1        0.0264
@<TRIPOS>BOND
     1    31    32    1
     2    32    25    1
     3    25    26   ar
     4    26    27   ar
     5    27    28   ar
     6    28    24    1
     7    24     1    1
     8     1     2   ar
     9     2     3   ar
    10     3     4   ar
    11     4    22    1
    12    22    23    1
    13     4     5   ar
    14     7     5    1
    15     7     8    1
    16     8     9    1
    17     9    19    1
    18    19    20    1
    19     9    10    1
    20    10    11    1
    21    10    12    1
    22    12    13    1
    23    12    14    1
    24    14    15    1
    25     5     6   ar
    26    28    29   ar
    27    29    30   ar
    28    30    25   ar
    29     6     1   ar
    30    14     7    1
    31    20    21    1
    32    11    16    1
    33    13    17    1
    34    15    18    1
@<TRIPOS>MOLECULE
*****
 32 34 0 0 0
SMALL
GASTEIGER

@<TRIPOS>ATOM
      1 C          62.5596   89.2648   11.4577 C.ar    1  UNL1       -0.0179
      2 C          62.5012   90.0392   10.1743 C.ar    1  UNL1       -0.0008
      3 C          63.3219   91.2842   10.0116 C.ar    1  UNL1        0.0363
      4 C          64.2010   91.7547   11.1322 C.ar    1  UNL1        0.1347
      5 C          64.2594   90.9803   12.4155 C.ar    1  UNL1        0.0136
      6 C          63.4387   89.7353   12.5782 C.ar    1  UNL1       -0.0051
      7 C          65.1386   91.4509   13.5360 C.3     1  UNL1        0.0548
      8 C          66.6049   91.6623   13.3009 C.3     1  UNL1        0.0120
      9 C          67.4840   92.1328   14.4214 C.3     1  UNL1        0.0591
     10 C          66.8969   92.3920   15.7772 C.3     1  UNL1        0.1420
     11 O          67.7760   92.8626   16.8977 O.3     1  UNL1       -0.3818
     12 C          65.4305   92.1806   16.0124 C.3     1  UNL1        0.1642
     13 O          64.8434   92.4398   17.3681 O.3     1  UNL1       -0.3795
     14 C          64.5514   91.7101   14.8918 C.3     1  UNL1        0.1436
     15 O          63.0851   91.4987   15.1270 O.3     1  UNL1       -0.3816
     16 H          67.2427   92.9808   17.6993 H       1  UNL1        0.2104
     17 H          65.5425   92.7357   17.9720 H       1  UNL1        0.2105
     18 H          62.6663   91.1963   14.3060 H       1  UNL1        0.2105
     19 C          68.9503   92.3442   14.1862 C.3     1  UNL1        0.1396
     20 O          69.6070   91.7591   12.9712 O.3     1  UNL1       -0.3819
     21 H          69.5898   90.7910   13.0289 H       1  UNL1        0.2104
     22 O          65.0217   92.9997   10.9694 O.3     1  UNL1       -0.4717
     23 C          66.2732   92.9703   10.1431 C.3     1  UNL1        0.2525
     24 C          61.7389   88.0198   11.6204 C.3     1  UNL1        0.0526
     25 C          63.4651   84.0224   10.4844 C.ar    1  UNL1       -0.0222
     26 C          63.3746   84.4171   11.9287 C.ar    1  UNL1       -0.0046
     27 C          62.7991   85.7496   12.3073 C.ar    1  UNL1       -0.0043
     28 C          62.3143   86.6873   11.2417 C.ar    1  UNL1       -0.0178
     29 C          62.4048   86.2926    9.7975 C.ar    1  UNL1       -0.0043
     30 C          62.9803   84.9601    9.4188 C.ar    1  UNL1       -0.0046
     31 C          63.3852   81.4274   10.5816 C.3     1  UNL1        0.0050
     32 C          64.0405   82.6899   10.1057 C.3     1  UNL1        0.0264
@<TRIPOS>BOND
     1    31    32    1
     2    32    25    1
     3    25    26   ar
     4    26    27   ar
     5    27    28   ar
     6    28    24    1
     7    24     1    1
     8     1     2   ar
     9     2     3   ar
    10     3     4   ar
    11     4    22    1
    12    22    23    1
    13     4     5   ar
    14     7     5    1
    15     7     8    1
    16     8     9    1
    17     9    19    1
    18    19    20    1
    19     9    10    1
    20    10    11    1
    21    10    12    1
    22    12    13    1
    23    12    14    1
    24    14    15    1
    25     5     6   ar
    26    28    29   ar
    27    29    30   ar
    28    30    25   ar
    29     6     1   ar
    30    14     7    1
    31    20    21    1
    32    11    16    1
    33    13    17    1
    34    15    18    1
@<TRIPOS>MOLECULE
*****
 32 34 0 0 0
SMALL
GASTEIGER

@<TRIPOS>ATOM
      1 C          62.7449   89.3074   11.2516 C.ar    1  UNL1       -0.0179
      2 C          62.6163   90.1599   10.0241 C.ar    1  UNL1       -0.0008
      3 C          63.3486   91.4662    9.9382 C.ar    1  UNL1        0.0363
      4 C          64.2095   91.9199   11.0796 C.ar    1  UNL1        0.1347
      5 C          64.3381   91.0674   12.3071 C.ar    1  UNL1        0.0136
      6 C          63.6058   89.7611   12.3931 C.ar    1  UNL1       -0.0051
      7 C          65.1990   91.5211   13.4486 C.3     1  UNL1        0.0548
      8 C          66.6662   91.7499   13.2366 C.3     1  UNL1        0.0120
      9 C          67.5271   92.2036   14.3781 C.3     1  UNL1        0.0591
     10 C          66.9209   92.4285   15.7315 C.3     1  UNL1        0.1420
     11 O          67.7818   92.8822   16.8730 O.3     1  UNL1       -0.3818
     12 C          65.4536   92.1997   15.9435 C.3     1  UNL1        0.1642
     13 O          64.8473   92.4246   17.2969 O.3     1  UNL1       -0.3795
     14 C          64.5927   91.7460   14.8020 C.3     1  UNL1        0.1436
     15 O          63.1255   91.5172   15.0140 O.3     1  UNL1       -0.3816
     16 H          67.2375   92.9787   17.6701 H       1  UNL1        0.2104
     17 H          65.5361   92.7134   17.9159 H       1  UNL1        0.2105
     18 H          62.7196   91.2290   14.1815 H       1  UNL1        0.2105
     19 C          68.9944   92.4324   14.1661 C.3     1  UNL1        0.1396
     20 O          69.6958   91.7814   13.0111 O.3     1  UNL1       -0.3819
     21 H          69.6977   90.8193   13.1347 H       1  UNL1        0.2104
     22 O          64.9419   93.2262   10.9936 O.3     1  UNL1       -0.4717
     23 C          66.1868   93.3349   10.1639 C.3     1  UNL1        0.2525
     24 C          62.0125   88.0011   11.3376 C.3     1  UNL1        0.0526
     25 C          61.3939   85.5205    7.6344 C.ar    1  UNL1       -0.0222
     26 C          60.3068   86.4359    8.1142 C.ar    1  UNL1       -0.0046
     27 C          60.5130   87.2628    9.3486 C.ar    1  UNL1       -0.0043
     28 C          61.8063   87.1742   10.1032 C.ar    1  UNL1       -0.0178
     29 C          62.8934   86.2588    9.6234 C.ar    1  UNL1       -0.0043
     30 C          62.6872   85.4320    8.3890 C.ar    1  UNL1       -0.0046
     31 C          62.3512   84.3722    5.5096 C.3     1  UNL1        0.0050
     32 C          61.1877   84.6936    6.4000 C.3     1  UNL1        0.0264
@<TRIPOS>BOND
     1    31    32    1
     2    32    25    1
     3    25    26   ar
     4    26    27   ar
     5    27    28   ar
     6    28    24    1
     7    24     1    1
     8     1     2   ar
     9     2     3   ar
    10     3     4   ar
    11     4    22    1
    12    22    23    1
    13     4     5   ar
    14     7     5    1
    15     7     8    1
    16     8     9    1
    17     9    19    1
    18    19    20    1
    19     9    10    1
    20    10    11    1
    21    10    12    1
    22    12    13    1
    23    12    14    1
    24    14    15    1
    25     5     6   ar
    26    28    29   ar
    27    29    30   ar
    28    30    25   ar
    29     6     1   ar
    30    14     7    1
    31    20    21    1
    32    11    16    1
    33    13    17    1
    34    15    18    1
@<TRIPOS>MOLECULE
*****
 32 34 0 0 0
SMALL
GASTEIGER

@<TRIPOS>ATOM
      1 C          63.8233   88.8707   13.5931 C.ar    1  UNL1       -0.0179
      2 C          64.2863   87.7733   14.5050 C.ar    1  UNL1       -0.0008
      3 C          64.0162   86.3407   14.1519 C.ar    1  UNL1        0.0363
      4 C          63.2831   86.0055   12.8869 C.ar    1  UNL1        0.1347
      5 C          62.8202   87.1028   11.9750 C.ar    1  UNL1        0.0136
      6 C          63.0903   88.5354   12.3281 C.ar    1  UNL1       -0.0051
      7 C          62.0872   86.7675   10.7100 C.3     1  UNL1        0.0548
      8 C          62.7796   86.0004    9.6228 C.3     1  UNL1        0.0120
      9 C          62.0465   85.6651    8.3577 C.3     1  UNL1        0.0591
     10 C          60.6211   86.0969    8.1800 C.3     1  UNL1        0.1420
     11 O          59.8881   85.7617    6.9150 O.3     1  UNL1       -0.3818
     12 C          59.9286   86.8640    9.2673 C.3     1  UNL1        0.1642
     13 O          58.5032   87.2958    9.0895 O.3     1  UNL1       -0.3795
     14 C          60.6617   87.1993   10.5323 C.3     1  UNL1        0.1436
     15 O          59.9692   87.9664   11.6195 O.3     1  UNL1       -0.3816
     16 H          58.9846   86.1114    6.9624 H       1  UNL1        0.2104
     17 H          58.1816   87.0009    8.2232 H       1  UNL1        0.2105
     18 H          60.5798   88.0977   12.3617 H       1  UNL1        0.2105
     19 C          62.7390   84.8980    7.2705 C.3     1  UNL1        0.1396
     20 O          61.9586   84.3992    6.0906 O.3     1  UNL1       -0.3819
     21 H          61.3232   83.7275    6.3838 H       1  UNL1        0.2104
     22 O          63.0130   84.5728   12.5338 O.3     1  UNL1       -0.4717
     23 C          64.1547   83.6171   12.3520 C.3     1  UNL1        0.2525
     24 C          64.0934   90.3033   13.9463 C.3     1  UNL1        0.0526
     25 C          66.3779   92.9311   11.0957 C.ar    1  UNL1       -0.0222
     26 C          65.0164   92.4247   10.7218 C.ar    1  UNL1       -0.0046
     27 C          64.2549   91.5488   11.6719 C.ar    1  UNL1       -0.0043
     28 C          64.8549   91.1792   12.9961 C.ar    1  UNL1       -0.0178
     29 C          66.2164   91.6856   13.3700 C.ar    1  UNL1       -0.0043
     30 C          66.9779   92.5615   12.4198 C.ar    1  UNL1       -0.0046
     31 C          68.0714   93.1937    9.1430 C.3     1  UNL1        0.0050
     32 C          67.1394   93.8071   10.1455 C.3     1  UNL1        0.0264
@<TRIPOS>BOND
     1    31    32    1
     2    32    25    1
     3    25    26   ar
     4    26    27   ar
     5    27    28   ar
     6    28    24    1
     7    24     1    1
     8     1     2   ar
     9     2     3   ar
    10     3     4   ar
    11     4    22    1
    12    22    23    1
    13     4     5   ar
    14     7     5    1
    15     7     8    1
    16     8     9    1
    17     9    19    1
    18    19    20    1
    19     9    10    1
    20    10    11    1
    21    10    12    1
    22    12    13    1
    23    12    14    1
    24    14    15    1
    25     5     6   ar
    26    28    29   ar
    27    29    30   ar
    28    30    25   ar
    29     6     1   ar
    30    14     7    1
    31    20    21    1
    32    11    16    1
    33    13    17    1
    34    15    18    1
@<TRIPOS>MOLECULE
*****
 32 34 0 0 0
SMALL
GASTEIGER

@<TRIPOS>ATOM
      1 C          62.5958   89.4602   11.5099 C.ar    1  UNL1       -0.0179
      2 C          62.1321   89.3961   10.0847 C.ar    1  UNL1       -0.0008
      3 C          61.9637   88.0671    9.4099 C.ar    1  UNL1        0.0363
      4 C          62.2589   86.8022   10.1602 C.ar    1  UNL1        0.1347
      5 C          62.7225   86.8663   11.5852 C.ar    1  UNL1        0.0136
      6 C          62.8910   88.1953   12.2601 C.ar    1  UNL1       -0.0051
      7 C          63.0177   85.6014   12.3355 C.3     1  UNL1        0.0548
      8 C          62.6456   84.2742   11.7439 C.3     1  UNL1        0.0120
      9 C          62.9408   83.0093   12.4941 C.3     1  UNL1        0.0591
     10 C          63.6081   83.0716   13.8360 C.3     1  UNL1        0.1420
     11 O          63.9033   81.8067   14.5863 O.3     1  UNL1       -0.3818
     12 C          63.9803   84.3988   14.4277 C.3     1  UNL1        0.1642
     13 O          64.6476   84.4611   15.7696 O.3     1  UNL1       -0.3795
     14 C          63.6851   85.6637   13.6775 C.3     1  UNL1        0.1436
     15 O          64.0572   86.9909   14.2691 O.3     1  UNL1       -0.3816
     16 H          64.3329   82.0232   15.4287 H       1  UNL1        0.2104
     17 H          64.7644   83.5621   16.1147 H       1  UNL1        0.2105
     18 H          63.7986   87.7003   13.6602 H       1  UNL1        0.2105
     19 C          62.5686   81.6821   11.9024 C.3     1  UNL1        0.1396
     20 O          62.3368   80.5006   12.7970 O.3     1  UNL1       -0.3819
     21 H          63.1685   80.2567   13.2326 H       1  UNL1        0.2104
     22 O          62.0904   85.4732    9.4853 O.3     1  UNL1       -0.4717
     23 C          62.7601   85.2101    8.1691 C.3     1  UNL1        0.2525
     24 C          62.7642   90.7892   12.1847 C.3     1  UNL1        0.0526
     25 C          66.7464   91.9321   13.9413 C.ar    1  UNL1       -0.0222
     26 C          66.3571   92.4277   12.5801 C.ar    1  UNL1       -0.0046
     27 C          65.0297   92.0467   11.9946 C.ar    1  UNL1       -0.0043
     28 C          64.0916   91.1702   12.7702 C.ar    1  UNL1       -0.0178
     29 C          64.4809   90.6746   14.1314 C.ar    1  UNL1       -0.0043
     30 C          65.8083   91.0555   14.7169 C.ar    1  UNL1       -0.0046
     31 C          68.2733   92.2864   16.0132 C.3     1  UNL1        0.0050
     32 C          68.0738   92.3130   14.5268 C.3     1  UNL1        0.0264
@<TRIPOS>BOND
     1    31    32    1
     2    32    25    1
     3    25    26   ar
     4    26    27   ar
     5    27    28   ar
     6    28    24    1
     7    24     1    1
     8     1     2   ar
     9     2     3   ar
    10     3     4   ar
    11     4    22    1
    12    22    23    1
    13     4     5   ar
    14     7     5    1
    15     7     8    1
    16     8     9    1
    17     9    19    1
    18    19    20    1
    19     9    10    1
    20    10    11    1
    21    10    12    1
    22    12    13    1
    23    12    14    1
    24    14    15    1
    25     5     6   ar
    26    28    29   ar
    27    29    30   ar
    28    30    25   ar
    29     6     1   ar
    30    14     7    1
    31    20    21    1
    32    11    16    1
    33    13    17    1
    34    15    18    1
