@<TRIPOS>MOLECULE
*****
 35 38 0 0 0
SMALL
GASTEIGER

@<TRIPOS>ATOM
      1 C          60.6493   88.7723    9.8314 C.3     1  UNL1        0.0799
      2 C          59.9115   89.6100    8.8295 C.3     1  UNL1        0.0178
      3 C          59.4829   89.0120    7.5224 C.3     1  UNL1        0.0029
      4 C          59.7921   87.5763    7.2171 C.3     1  UNL1        0.0178
      5 C          60.5299   86.7386    8.2190 C.3     1  UNL1        0.0795
      6 N          60.9585   87.3366    9.5262 N.3     1  UNL1       -0.1583
      7 C          61.0780   89.3703   11.1386 C.3     1  UNL1        0.0237
      8 C          59.7423   89.5314   11.8018 C.3     1  UNL1        0.0019
      9 C          60.9911   89.9521   12.5185 C.3     1  UNL1        0.0019
     10 C          62.5626   89.4170   10.9293 C.3     1  UNL1        0.0866
     11 C          65.9795   92.3704   13.9046 C.3     1  UNL1        0.0916
     12 O          66.8490   93.5634   14.1703 O.3     1  UNL1       -0.3866
     13 C          65.7571   93.1422   12.6378 C.3     1  UNL1        0.0484
     14 C          64.8472   92.5967   11.5772 C.3     1  UNL1        0.0958
     15 N          64.1598   91.2795   11.7836 N.am    1  UNL1       -0.2794
     16 C          63.2500   90.7341   10.7230 C.2     1  UNL1        0.2257
     17 O          63.0275   91.5059    9.4561 O.2     1  UNL1       -0.2749
     18 C          64.3822   90.5078   13.0504 C.3     1  UNL1        0.0958
     19 C          65.2921   91.0533   14.1110 C.3     1  UNL1        0.0484
     20 H          66.8052   94.1701   13.4147 H       1  UNL1        0.2102
     21 C          66.5039   92.0130   15.2638 C.3     1  UNL1        0.0270
     22 C          68.8954   92.4101   16.1981 C.3     1  UNL1        0.0001
     23 C          67.5027   92.9043   15.9404 C.3     1  UNL1        0.0024
     24 S          61.6964   86.4990   10.5281 S.O2    1  UNL1        0.0632
     25 O          60.8289   86.3786   11.5555 O.2     1  UNL1       -0.1528
     26 O          62.8739   86.4279    9.6015 O.2     1  UNL1       -0.1528
     27 C          62.4344   85.6613   11.5301 C.ar    1  UNL1        0.1222
     28 C          62.5435   84.1784   11.3327 C.ar    1  UNL1        0.0208
     29 C          63.2815   83.3408   12.3347 C.ar    1  UNL1        0.0128
     30 C          63.9103   83.9861   13.5340 C.ar    1  UNL1        0.0578
     31 CL         64.6482   83.1485   14.5358 Cl      1  UNL1       -0.0822
     32 C          63.8011   85.4690   13.7312 C.ar    1  UNL1        0.0128
     33 C          63.0631   86.3067   12.7293 C.ar    1  UNL1        0.0208
     34 C          60.8391   85.3029    7.9139 C.3     1  UNL1        0.0177
     35 C          61.6328   84.9503    6.6908 C.3     1  UNL1        0.0015
@<TRIPOS>BOND
     1    22    23    1
     2    23    21    1
     3    21    11    1
     4    11    12    1
     5    11    13    1
     6    13    14    1
     7    14    15    1
     8    15    16   am
     9    16    17    2
    10    16    10    1
    11    10     7    1
    12     1     7    1
    13     1     2    1
    14     2     3    1
    15     3     4    1
    16     4     5    1
    17     5    34    1
    18    34    35    1
    19     5     6    1
    20     6    24    1
    21    24    25    2
    22    24    26    2
    23    24    27    1
    24    27    28   ar
    25    28    29   ar
    26    29    30   ar
    27    30    31    1
    28    30    32   ar
    29    32    33   ar
    30     7     8    1
    31     8     9    1
    32    15    18    1
    33    18    19    1
    34    19    11    1
    35     9     7    1
    36     6     1    1
    37    33    27   ar
    38    12    20    1
@<TRIPOS>MOLECULE
*****
 35 38 0 0 0
SMALL
GASTEIGER

@<TRIPOS>ATOM
      1 C          60.5852   88.6664    9.7503 C.3     1  UNL1        0.0799
      2 C          59.8579   89.4825    8.7232 C.3     1  UNL1        0.0178
      3 C          59.5054   88.8773    7.3968 C.3     1  UNL1        0.0029
      4 C          59.8801   87.4560    7.0975 C.3     1  UNL1        0.0178
      5 C          60.6073   86.6399    8.1246 C.3     1  UNL1        0.0795
      6 N          60.9599   87.2450    9.4510 N.3     1  UNL1       -0.1583
      7 C          60.9377   89.2715   11.0768 C.3     1  UNL1        0.0237
      8 C          59.5843   89.2886   11.7233 C.3     1  UNL1        0.0019
      9 C          60.7778   89.8096   12.4679 C.3     1  UNL1        0.0019
     10 C          62.4136   89.4645   10.8911 C.3     1  UNL1        0.0866
     11 C          65.8818   93.5487   11.6269 C.3     1  UNL1        0.0916
     12 O          66.8565   94.3605   12.4274 O.3     1  UNL1       -0.3866
     13 C          65.8573   92.7860   12.9182 C.3     1  UNL1        0.0484
     14 C          64.9841   91.5742   13.0571 C.3     1  UNL1        0.0958
     15 N          64.1354   91.1253   11.9046 N.am    1  UNL1       -0.2794
     16 C          63.2623   89.9135   12.0435 C.2     1  UNL1        0.2257
     17 O          63.2377   89.1507   13.3349 O.2     1  UNL1       -0.2749
     18 C          64.1599   91.8880   10.6132 C.3     1  UNL1        0.0958
     19 C          65.0331   93.0998   10.4744 C.3     1  UNL1        0.0484
     20 H          66.9466   93.9760   13.3134 H       1  UNL1        0.2102
     21 C          66.2448   94.5934   10.6135 C.3     1  UNL1        0.0270
     22 C          67.3207   95.1294    8.3102 C.3     1  UNL1        0.0001
     23 C          67.2563   94.2864    9.5493 C.3     1  UNL1        0.0024
     24 S          61.6871   86.4290   10.4782 S.O2    1  UNL1        0.0632
     25 O          60.7943   86.2963   11.4821 O.2     1  UNL1       -0.1528
     26 O          62.8910   86.3774    9.5848 O.2     1  UNL1       -0.1528
     27 C          62.4145   85.6129   11.5054 C.ar    1  UNL1        0.1222
     28 C          63.0783   86.2893   12.6680 C.ar    1  UNL1        0.0208
     29 C          63.8057   85.4731   13.6952 C.ar    1  UNL1        0.0128
     30 C          63.8692   83.9806   13.5596 C.ar    1  UNL1        0.0578
     31 CL         64.5966   83.1646   14.5867 Cl      1  UNL1       -0.0822
     32 C          63.2054   83.3043   12.3969 C.ar    1  UNL1        0.0128
     33 C          62.4781   84.1204   11.3697 C.ar    1  UNL1        0.0208
     34 C          60.9821   85.2187    7.8253 C.3     1  UNL1        0.0177
     35 C          61.7707   84.8950    6.5910 C.3     1  UNL1        0.0015
@<TRIPOS>BOND
     1    22    23    1
     2    23    21    1
     3    21    11    1
     4    11    12    1
     5    11    13    1
     6    13    14    1
     7    14    15    1
     8    15    16   am
     9    16    17    2
    10    16    10    1
    11    10     7    1
    12     1     7    1
    13     1     2    1
    14     2     3    1
    15     3     4    1
    16     4     5    1
    17     5    34    1
    18    34    35    1
    19     5     6    1
    20     6    24    1
    21    24    25    2
    22    24    26    2
    23    24    27    1
    24    27    28   ar
    25    28    29   ar
    26    29    30   ar
    27    30    31    1
    28    30    32   ar
    29    32    33   ar
    30     7     8    1
    31     8     9    1
    32    15    18    1
    33    18    19    1
    34    19    11    1
    35     9     7    1
    36     6     1    1
    37    33    27   ar
    38    12    20    1
@<TRIPOS>MOLECULE
*****
 35 38 0 0 0
SMALL
GASTEIGER

@<TRIPOS>ATOM
      1 C          63.3960   88.1336   13.1549 C.3     1  UNL1        0.0799
      2 C          64.2206   87.7334   14.3422 C.3     1  UNL1        0.0178
      3 C          64.4931   86.2832   14.6116 C.3     1  UNL1        0.0029
      4 C          63.9408   85.2331   13.6937 C.3     1  UNL1        0.0178
      5 C          63.1162   85.6333   12.5064 C.3     1  UNL1        0.0795
      6 N          62.8437   87.0836   12.2370 N.3     1  UNL1       -0.1583
      7 C          63.1235   89.5838   12.8855 C.3     1  UNL1        0.0237
      8 C          61.6478   89.6254   13.1511 C.3     1  UNL1        0.0019
      9 C          62.3714   90.8736   12.7408 C.3     1  UNL1        0.0019
     10 C          64.5045   90.0460   12.5262 C.3     1  UNL1        0.0866
     11 C          66.2064   94.9357   10.9625 C.3     1  UNL1        0.0916
     12 O          66.8032   96.2920   11.1946 O.3     1  UNL1       -0.3866
     13 C          66.4533   94.8622   12.4402 C.3     1  UNL1        0.0484
     14 C          66.0895   93.6213   13.2005 C.3     1  UNL1        0.0958
     15 N          65.4789   92.4541   12.4831 N.am    1  UNL1       -0.2794
     16 C          65.1152   91.2133   13.2435 C.2     1  UNL1        0.2257
     17 O          65.3621   91.1397   14.7213 O.2     1  UNL1       -0.2749
     18 C          65.2320   92.5276   11.0055 C.3     1  UNL1        0.0958
     19 C          65.5957   93.7684   10.2451 C.3     1  UNL1        0.0484
     20 H          67.0206   96.3931   12.1346 H       1  UNL1        0.2102
     21 C          66.1667   95.4802    9.5653 C.3     1  UNL1        0.0270
     22 C          67.5442   96.8526    7.8422 C.3     1  UNL1        0.0001
     23 C          67.4444   95.7157    8.8157 C.3     1  UNL1        0.0024
     24 S          62.0190   87.4839   11.0497 S.O2    1  UNL1        0.0632
     25 O          62.9242   87.9602   10.1687 O.2     1  UNL1       -0.1528
     26 O          60.7766   87.0383   11.7625 O.2     1  UNL1       -0.1528
     27 C          61.1942   87.8842    9.8624 C.ar    1  UNL1        0.1222
     28 C          60.9838   89.3362    9.5506 C.ar    1  UNL1        0.0208
     29 C          60.1590   89.7364    8.3633 C.ar    1  UNL1        0.0128
     30 C          59.5446   88.6846    7.4879 C.ar    1  UNL1        0.0578
     31 CL         58.7198   89.0848    6.3008 Cl      1  UNL1       -0.0822
     32 C          59.7550   87.2326    7.7999 C.ar    1  UNL1        0.0128
     33 C          60.5798   86.8323    8.9872 C.ar    1  UNL1        0.0208
     34 C          62.5639   84.5834   11.5885 C.3     1  UNL1        0.0177
     35 C          63.3812   84.0958   10.4289 C.3     1  UNL1        0.0015
@<TRIPOS>BOND
     1    22    23    1
     2    23    21    1
     3    21    11    1
     4    11    12    1
     5    11    13    1
     6    13    14    1
     7    14    15    1
     8    15    16   am
     9    16    17    2
    10    16    10    1
    11    10     7    1
    12     1     7    1
    13     1     2    1
    14     2     3    1
    15     3     4    1
    16     4     5    1
    17     5    34    1
    18    34    35    1
    19     5     6    1
    20     6    24    1
    21    24    25    2
    22    24    26    2
    23    24    27    1
    24    27    28   ar
    25    28    29   ar
    26    29    30   ar
    27    30    31    1
    28    30    32   ar
    29    32    33   ar
    30     7     8    1
    31     8     9    1
    32    15    18    1
    33    18    19    1
    34    19    11    1
    35     9     7    1
    36     6     1    1
    37    33    27   ar
    38    12    20    1
@<TRIPOS>MOLECULE
*****
 35 38 0 0 0
SMALL
GASTEIGER

@<TRIPOS>ATOM
      1 C          62.2196   86.6155   10.4502 C.3     1  UNL1        0.0799
      2 C          62.2201   86.4417    8.9603 C.3     1  UNL1        0.0178
      3 C          62.9016   85.2562    8.3438 C.3     1  UNL1        0.0029
      4 C          63.5826   84.2444    9.2172 C.3     1  UNL1        0.0178
      5 C          63.5821   84.4183   10.7070 C.3     1  UNL1        0.0795
      6 N          62.9006   85.6038   11.3236 N.3     1  UNL1       -0.1583
      7 C          61.5382   87.8010   11.0668 C.3     1  UNL1        0.0237
      8 C          60.1171   87.5137   10.6822 C.3     1  UNL1        0.0019
      9 C          60.4454   88.7438   11.4755 C.3     1  UNL1        0.0019
     10 C          62.7226   88.5001   11.6654 C.3     1  UNL1        0.0866
     11 C          65.7712   92.5323   13.5882 C.3     1  UNL1        0.0916
     12 O          66.4494   93.8674   13.5020 O.3     1  UNL1       -0.3866
     13 C          65.3595   92.9448   12.2061 C.3     1  UNL1        0.0484
     14 C          64.4944   92.0397   11.3799 C.3     1  UNL1        0.0958
     15 N          64.0411   90.7224   11.9358 N.am    1  UNL1       -0.2794
     16 C          63.1759   89.8175   11.1095 C.2     1  UNL1        0.2257
     17 O          62.7642   90.2299    9.7273 O.2     1  UNL1       -0.2749
     18 C          64.4528   90.3100   13.3180 C.3     1  UNL1        0.0958
     19 C          65.3179   91.2150   14.1442 C.3     1  UNL1        0.0484
     20 H          66.2677   94.2670   12.6370 H       1  UNL1        0.2102
     21 C          66.4185   92.5835   14.9405 C.3     1  UNL1        0.0270
     22 C          68.7866   92.4544   16.0014 C.3     1  UNL1        0.0001
     23 C          67.6895   91.8279   15.1926 C.3     1  UNL1        0.0024
     24 S          62.9001   85.7777   12.8134 S.O2    1  UNL1        0.0632
     25 O          63.9689   86.5676   13.0506 O.2     1  UNL1       -0.1528
     26 O          61.6760   84.9164   12.9135 O.2     1  UNL1       -0.1528
     27 C          62.8995   85.9515   14.3034 C.ar    1  UNL1        0.1222
     28 C          62.2617   84.9142   15.1792 C.ar    1  UNL1        0.0208
     29 C          62.2611   85.0882   16.6692 C.ar    1  UNL1        0.0128
     30 C          62.8983   86.2993   17.2832 C.ar    1  UNL1        0.0578
     31 CL         62.8977   86.4732   18.7730 Cl      1  UNL1       -0.0822
     32 C          63.5361   87.3366   16.4072 C.ar    1  UNL1        0.0128
     33 C          63.5367   87.1627   14.9173 C.ar    1  UNL1        0.0208
     34 C          64.2630   83.4066   11.5804 C.3     1  UNL1        0.0177
     35 C          63.6087   82.0831   11.8455 C.3     1  UNL1        0.0015
@<TRIPOS>BOND
     1    22    23    1
     2    23    21    1
     3    21    11    1
     4    11    12    1
     5    11    13    1
     6    13    14    1
     7    14    15    1
     8    15    16   am
     9    16    17    2
    10    16    10    1
    11    10     7    1
    12     1     7    1
    13     1     2    1
    14     2     3    1
    15     3     4    1
    16     4     5    1
    17     5    34    1
    18    34    35    1
    19     5     6    1
    20     6    24    1
    21    24    25    2
    22    24    26    2
    23    24    27    1
    24    27    28   ar
    25    28    29   ar
    26    29    30   ar
    27    30    31    1
    28    30    32   ar
    29    32    33   ar
    30     7     8    1
    31     8     9    1
    32    15    18    1
    33    18    19    1
    34    19    11    1
    35     9     7    1
    36     6     1    1
    37    33    27   ar
    38    12    20    1
@<TRIPOS>MOLECULE
*****
 35 38 0 0 0
SMALL
GASTEIGER

@<TRIPOS>ATOM
      1 C          60.4937   88.7135    9.1491 C.3     1  UNL1        0.0799
      2 C          59.6990   89.4640    8.1219 C.3     1  UNL1        0.0178
      3 C          59.2298   88.7661    6.8798 C.3     1  UNL1        0.0029
      4 C          59.5554   87.3177    6.6649 C.3     1  UNL1        0.0178
      5 C          60.3501   86.5672    7.6921 C.3     1  UNL1        0.0795
      6 N          60.8193   87.2651    8.9342 N.3     1  UNL1       -0.1583
      7 C          60.9629   89.4114   10.3912 C.3     1  UNL1        0.0237
      8 C          59.6575   89.5614   11.1146 C.3     1  UNL1        0.0019
      9 C          60.9222   90.0772   11.7347 C.3     1  UNL1        0.0019
     10 C          62.4313   89.5038   10.0992 C.3     1  UNL1        0.0866
     11 C          64.3668   90.8453   14.9679 C.3     1  UNL1        0.0916
     12 O          65.1079   91.7303   15.9257 O.3     1  UNL1       -0.3866
     13 C          64.7836   91.9452   14.0371 C.3     1  UNL1        0.0484
     14 C          64.4038   91.8847   12.5871 C.3     1  UNL1        0.0958
     15 N          63.6074   90.7244   12.0682 N.am    1  UNL1       -0.2794
     16 C          63.2277   90.6641   10.6182 C.2     1  UNL1        0.2257
     17 O          63.6445   91.7640    9.6873 O.2     1  UNL1       -0.2749
     18 C          63.1907   89.6245   12.9990 C.3     1  UNL1        0.0958
     19 C          63.5704   89.6849   14.4489 C.3     1  UNL1        0.0484
     20 H          65.4460   92.5069   15.4529 H       1  UNL1        0.2102
     21 C          64.2074   90.0526   16.2315 C.3     1  UNL1        0.0270
     22 C          63.0539   88.0958   17.4925 C.3     1  UNL1        0.0001
     23 C          63.0562   89.1027   16.3806 C.3     1  UNL1        0.0024
     24 S          61.6140   86.5147    9.9614 S.O2    1  UNL1        0.0632
     25 O          60.7450   86.3331   10.9783 O.2     1  UNL1       -0.1528
     26 O          62.8076   86.5353    9.0530 O.2     1  UNL1       -0.1528
     27 C          62.4089   85.7642   10.9886 C.ar    1  UNL1        0.1222
     28 C          62.7137   86.4000   12.3125 C.ar    1  UNL1        0.0208
     29 C          63.5086   85.6495   13.3396 C.ar    1  UNL1        0.0128
     30 C          63.9987   84.2632   13.0428 C.ar    1  UNL1        0.0578
     31 CL         64.7935   83.5128   14.0699 Cl      1  UNL1       -0.0822
     32 C          63.6938   83.6275   11.7189 C.ar    1  UNL1        0.0128
     33 C          62.8989   84.3780   10.6917 C.ar    1  UNL1        0.0208
     34 C          60.6757   85.1189    7.4772 C.3     1  UNL1        0.0177
     35 C          61.5764   84.7120    6.3488 C.3     1  UNL1        0.0015
@<TRIPOS>BOND
     1    22    23    1
     2    23    21    1
     3    21    11    1
     4    11    12    1
     5    11    13    1
     6    13    14    1
     7    14    15    1
     8    15    16   am
     9    16    17    2
    10    16    10    1
    11    10     7    1
    12     1     7    1
    13     1     2    1
    14     2     3    1
    15     3     4    1
    16     4     5    1
    17     5    34    1
    18    34    35    1
    19     5     6    1
    20     6    24    1
    21    24    25    2
    22    24    26    2
    23    24    27    1
    24    27    28   ar
    25    28    29   ar
    26    29    30   ar
    27    30    31    1
    28    30    32   ar
    29    32    33   ar
    30     7     8    1
    31     8     9    1
    32    15    18    1
    33    18    19    1
    34    19    11    1
    35     9     7    1
    36     6     1    1
    37    33    27   ar
    38    12    20    1
@<TRIPOS>MOLECULE
*****
 35 38 0 0 0
SMALL
GASTEIGER

@<TRIPOS>ATOM
      1 C          61.9065   88.7249   11.0451 C.3     1  UNL1        0.0799
      2 C          61.4312   90.0162   10.4482 C.3     1  UNL1        0.0178
      3 C          60.5416   90.0017    9.2405 C.3     1  UNL1        0.0029
      4 C          60.1274   88.6957    8.6299 C.3     1  UNL1        0.0178
      5 C          60.6027   87.4044    9.2268 C.3     1  UNL1        0.0795
      6 N          61.4923   87.4189   10.4345 N.3     1  UNL1       -0.1583
      7 C          62.7961   88.7394   12.2528 C.3     1  UNL1        0.0237
      8 C          63.5272   87.4449   12.0534 C.3     1  UNL1        0.0019
      9 C          63.8323   88.3027   13.2456 C.3     1  UNL1        0.0019
     10 C          62.3740   90.0389   12.8717 C.3     1  UNL1        0.0866
     11 C          66.1969   93.4325   11.1054 C.3     1  UNL1        0.0916
     12 O          67.3191   94.4106   11.2891 O.3     1  UNL1       -0.3866
     13 C          66.2742   93.4619   12.6031 C.3     1  UNL1        0.0484
     14 C          65.3378   92.6208   13.4191 C.3     1  UNL1        0.0958
     15 N          64.3241   91.7504   12.7373 N.am    1  UNL1       -0.2794
     16 C          63.3877   90.9094   13.5534 C.2     1  UNL1        0.2257
     17 O          63.4650   90.9388   15.0511 O.2     1  UNL1       -0.2749
     18 C          64.2467   91.7210   11.2396 C.3     1  UNL1        0.0958
     19 C          65.1832   92.5621   10.4236 C.3     1  UNL1        0.0484
     20 H          67.4882   94.5345   12.2362 H       1  UNL1        0.2102
     21 C          66.5093   93.7428    9.6714 C.3     1  UNL1        0.0270
     22 C          68.6022   92.3874    8.9416 C.3     1  UNL1        0.0001
     23 C          67.9287   93.7049    9.1880 C.3     1  UNL1        0.0024
     24 S          61.9676   86.1276   11.0315 S.O2    1  UNL1        0.0632
     25 O          61.2437   86.0052   12.1643 O.2     1  UNL1       -0.1528
     26 O          62.9154   85.9455    9.8831 O.2     1  UNL1       -0.1528
     27 C          62.4431   84.8362   11.6285 C.ar    1  UNL1        0.1222
     28 C          63.1191   83.8141   10.7635 C.ar    1  UNL1        0.0208
     29 C          63.5946   82.5227   11.3605 C.ar    1  UNL1        0.0128
     30 C          63.3940   82.2535   12.8225 C.ar    1  UNL1        0.0578
     31 CL         63.8694   80.9622   13.4194 Cl      1  UNL1       -0.0822
     32 C          62.7180   83.2757   13.6874 C.ar    1  UNL1        0.0128
     33 C          62.2425   84.5671   13.0904 C.ar    1  UNL1        0.0208
     34 C          60.1885   86.0984    8.6162 C.3     1  UNL1        0.0177
     35 C          60.6497   85.7363    7.2355 C.3     1  UNL1        0.0015
@<TRIPOS>BOND
     1    22    23    1
     2    23    21    1
     3    21    11    1
     4    11    12    1
     5    11    13    1
     6    13    14    1
     7    14    15    1
     8    15    16   am
     9    16    17    2
    10    16    10    1
    11    10     7    1
    12     1     7    1
    13     1     2    1
    14     2     3    1
    15     3     4    1
    16     4     5    1
    17     5    34    1
    18    34    35    1
    19     5     6    1
    20     6    24    1
    21    24    25    2
    22    24    26    2
    23    24    27    1
    24    27    28   ar
    25    28    29   ar
    26    29    30   ar
    27    30    31    1
    28    30    32   ar
    29    32    33   ar
    30     7     8    1
    31     8     9    1
    32    15    18    1
    33    18    19    1
    34    19    11    1
    35     9     7    1
    36     6     1    1
    37    33    27   ar
    38    12    20    1
@<TRIPOS>MOLECULE
*****
 35 38 0 0 0
SMALL
GASTEIGER

@<TRIPOS>ATOM
      1 C          63.2215   88.0214   12.9969 C.3     1  UNL1        0.0799
      2 C          64.0721   87.6108   14.1621 C.3     1  UNL1        0.0178
      3 C          64.4098   86.1644   14.3714 C.3     1  UNL1        0.0029
      4 C          63.8967   85.1285   13.4154 C.3     1  UNL1        0.0178
      5 C          63.0460   85.5391   12.2502 C.3     1  UNL1        0.0795
      6 N          62.7083   86.9856   12.0410 N.3     1  UNL1       -0.1583
      7 C          62.8838   89.4679   12.7877 C.3     1  UNL1        0.0237
      8 C          61.7809   89.6259   13.7920 C.3     1  UNL1        0.0019
      9 C          62.2039   90.7948   12.9524 C.3     1  UNL1        0.0019
     10 C          63.8695   89.8123   11.7107 C.3     1  UNL1        0.0866
     11 C          66.8261   93.1162   14.8079 C.3     1  UNL1        0.0916
     12 O          67.5102   94.4132   15.1233 O.3     1  UNL1       -0.3866
     13 C          66.4845   93.8976   13.5740 C.3     1  UNL1        0.0484
     14 C          65.6599   93.2670   12.4912 C.3     1  UNL1        0.0958
     15 N          65.1770   91.8549   12.6424 N.am    1  UNL1       -0.2794
     16 C          64.3524   91.2243   11.5596 C.2     1  UNL1        0.2257
     17 O          64.0108   92.0058   10.3256 O.2     1  UNL1       -0.2749
     18 C          65.5186   91.0734   13.8763 C.3     1  UNL1        0.0958
     19 C          66.3432   91.7041   14.9591 C.3     1  UNL1        0.0484
     20 H          67.3726   95.0372   14.3935 H       1  UNL1        0.2102
     21 C          67.4054   92.7851   16.1515 C.3     1  UNL1        0.0270
     22 C          69.7332   92.3773   15.0722 C.3     1  UNL1        0.0001
     23 C          68.8789   92.5435   16.2939 C.3     1  UNL1        0.0024
     24 S          61.8576   87.3963   10.8758 S.O2    1  UNL1        0.0632
     25 O          62.7378   87.5363    9.8618 O.2     1  UNL1       -0.1528
     26 O          60.6374   87.3385   11.7464 O.2     1  UNL1       -0.1528
     27 C          61.0068   87.8070    9.7107 C.ar    1  UNL1        0.1222
     28 C          60.8755   89.2576    9.3524 C.ar    1  UNL1        0.0208
     29 C          60.0246   89.6683    8.1872 C.ar    1  UNL1        0.0128
     30 C          59.3051   88.6283    7.3805 C.ar    1  UNL1        0.0578
     31 CL         58.4543   89.0390    6.2154 Cl      1  UNL1       -0.0822
     32 C          59.4365   87.1778    7.7389 C.ar    1  UNL1        0.0128
     33 C          60.2873   86.7670    8.9040 C.ar    1  UNL1        0.0208
     34 C          62.5328   84.5034   11.2943 C.3     1  UNL1        0.0177
     35 C          63.4726   83.8409   10.3309 C.3     1  UNL1        0.0015
@<TRIPOS>BOND
     1    22    23    1
     2    23    21    1
     3    21    11    1
     4    11    12    1
     5    11    13    1
     6    13    14    1
     7    14    15    1
     8    15    16   am
     9    16    17    2
    10    16    10    1
    11    10     7    1
    12     1     7    1
    13     1     2    1
    14     2     3    1
    15     3     4    1
    16     4     5    1
    17     5    34    1
    18    34    35    1
    19     5     6    1
    20     6    24    1
    21    24    25    2
    22    24    26    2
    23    24    27    1
    24    27    28   ar
    25    28    29   ar
    26    29    30   ar
    27    30    31    1
    28    30    32   ar
    29    32    33   ar
    30     7     8    1
    31     8     9    1
    32    15    18    1
    33    18    19    1
    34    19    11    1
    35     9     7    1
    36     6     1    1
    37    33    27   ar
    38    12    20    1
@<TRIPOS>MOLECULE
*****
 35 38 0 0 0
SMALL
GASTEIGER

@<TRIPOS>ATOM
      1 C          63.6166   90.1931   13.1727 C.3     1  UNL1        0.0799
      2 C          62.4699   89.6384   12.3808 C.3     1  UNL1        0.0178
      3 C          62.2571   90.0757   10.9618 C.3     1  UNL1        0.0029
      4 C          63.1912   91.0679   10.3348 C.3     1  UNL1        0.0178
      5 C          64.3379   91.6227   11.1267 C.3     1  UNL1        0.0795
      6 N          64.5507   91.1853   12.5457 N.3     1  UNL1       -0.1583
      7 C          63.8293   89.7557   14.5917 C.3     1  UNL1        0.0237
      8 C          63.5113   91.0342   15.3088 C.3     1  UNL1        0.0019
      9 C          63.9060   89.8151   16.0886 C.3     1  UNL1        0.0019
     10 C          64.2212   88.3253   14.3674 C.3     1  UNL1        0.0866
     11 C          63.6284   82.9682   13.9201 C.3     1  UNL1        0.0916
     12 O          63.2391   81.6095   14.4223 O.3     1  UNL1       -0.3866
     13 C          63.1462   83.3268   15.2945 C.3     1  UNL1        0.0484
     14 C          63.1739   84.7558   15.7499 C.3     1  UNL1        0.0958
     15 N          63.6837   85.8260   14.8309 N.am    1  UNL1       -0.2794
     16 C          63.7114   87.2550   15.2863 C.2     1  UNL1        0.2257
     17 O          63.2292   87.6136   16.6607 O.2     1  UNL1       -0.2749
     18 C          64.1659   85.4675   13.4565 C.3     1  UNL1        0.0958
     19 C          64.1382   84.0385   13.0011 C.3     1  UNL1        0.0484
     20 H          62.8985   81.6847   15.3275 H       1  UNL1        0.2102
     21 C          63.9754   82.1377   12.7201 C.3     1  UNL1        0.0270
     22 C          63.2773   81.1950   10.4019 C.3     1  UNL1        0.0001
     23 C          62.9039   81.7381   11.7494 C.3     1  UNL1        0.0024
     24 S          65.6974   91.7400   13.3377 S.O2    1  UNL1        0.0632
     25 O          66.4671   90.6618   13.5974 O.2     1  UNL1       -0.1528
     26 O          65.1020   93.1133   13.2378 O.2     1  UNL1       -0.1528
     27 C          66.8441   92.2949   14.1297 C.ar    1  UNL1        0.1222
     28 C          66.5806   93.1792   15.3122 C.ar    1  UNL1        0.0208
     29 C          67.7274   93.7341   16.1042 C.ar    1  UNL1        0.0128
     30 C          69.1376   93.4045   15.7136 C.ar    1  UNL1        0.0578
     31 CL         70.2843   93.9593   16.5055 Cl      1  UNL1       -0.0822
     32 C          69.4011   92.5201   14.5311 C.ar    1  UNL1        0.0128
     33 C          68.2543   91.9653   13.7391 C.ar    1  UNL1        0.0208
     34 C          65.2720   92.6148   10.4998 C.3     1  UNL1        0.0177
     35 C          66.7146   92.2596   10.2926 C.3     1  UNL1        0.0015
@<TRIPOS>BOND
     1    22    23    1
     2    23    21    1
     3    21    11    1
     4    11    12    1
     5    11    13    1
     6    13    14    1
     7    14    15    1
     8    15    16   am
     9    16    17    2
    10    16    10    1
    11    10     7    1
    12     1     7    1
    13     1     2    1
    14     2     3    1
    15     3     4    1
    16     4     5    1
    17     5    34    1
    18    34    35    1
    19     5     6    1
    20     6    24    1
    21    24    25    2
    22    24    26    2
    23    24    27    1
    24    27    28   ar
    25    28    29   ar
    26    29    30   ar
    27    30    31    1
    28    30    32   ar
    29    32    33   ar
    30     7     8    1
    31     8     9    1
    32    15    18    1
    33    18    19    1
    34    19    11    1
    35     9     7    1
    36     6     1    1
    37    33    27   ar
    38    12    20    1
@<TRIPOS>MOLECULE
*****
 35 38 0 0 0
SMALL
GASTEIGER

@<TRIPOS>ATOM
      1 C          57.5686   94.8013   -1.4941 C.3     1  UNL1        0.0799
      2 C          56.1058   94.6241   -1.2140 C.3     1  UNL1        0.0178
      3 C          55.1425   94.4351   -2.3481 C.3     1  UNL1        0.0029
      4 C          55.6421   94.4232   -3.7624 C.3     1  UNL1        0.0178
      5 C          57.1050   94.6003   -4.0426 C.3     1  UNL1        0.0795
      6 N          58.0683   94.7894   -2.9084 N.3     1  UNL1       -0.1583
      7 C          58.5319   94.9903   -0.3599 C.3     1  UNL1        0.0237
      8 C          58.5436   96.4879   -0.2749 C.3     1  UNL1        0.0019
      9 C          59.3831   95.6766    0.6670 C.3     1  UNL1        0.0019
     10 C          58.8549   93.5585   -0.0510 C.3     1  UNL1        0.0866
     11 C          64.1682   93.6724    0.9520 C.3     1  UNL1        0.0916
     12 O          65.3807   93.4809    1.8140 O.3     1  UNL1       -0.3866
     13 C          63.5175   93.1834    2.2118 C.3     1  UNL1        0.0484
     14 C          62.0264   93.0326    2.2760 C.3     1  UNL1        0.0958
     15 N          61.1862   93.3709    1.0803 N.am    1  UNL1       -0.2794
     16 C          59.6951   93.2202    1.1446 C.2     1  UNL1        0.2257
     17 O          59.0443   92.7311    2.4045 O.2     1  UNL1       -0.2749
     18 C          61.8369   93.8600   -0.1795 C.3     1  UNL1        0.0958
     19 C          63.3280   94.0108   -0.2437 C.3     1  UNL1        0.0484
     20 H          65.1088   93.1574    2.6871 H       1  UNL1        0.2102
     21 C          65.2401   94.0950   -0.0086 C.3     1  UNL1        0.0270
     22 C          65.7578   96.6383    0.1075 C.3     1  UNL1        0.0001
     23 C          65.1949   95.4595   -0.6298 C.3     1  UNL1        0.0024
     24 S          59.5312   94.9666   -3.1884 S.O2    1  UNL1        0.0632
     25 O          59.6825   96.3032   -3.3028 O.2     1  UNL1       -0.1528
     26 O          59.7229   93.4800   -3.1274 O.2     1  UNL1       -0.1528
     27 C          60.9942   95.1436   -3.4685 C.ar    1  UNL1        0.1222
     28 C          61.8170   93.9757   -3.9256 C.ar    1  UNL1        0.0208
     29 C          63.2801   94.1529   -4.2057 C.ar    1  UNL1        0.0128
     30 C          63.9202   95.4978   -4.0285 C.ar    1  UNL1        0.0578
     31 CL         65.3831   95.6749   -4.3085 Cl      1  UNL1       -0.0822
     32 C          63.0973   96.6656   -3.5713 C.ar    1  UNL1        0.0128
     33 C          61.6343   96.4886   -3.2913 C.ar    1  UNL1        0.0208
     34 C          57.6047   94.5885   -5.4568 C.3     1  UNL1        0.0177
     35 C          57.8353   93.2835   -6.1598 C.3     1  UNL1        0.0015
@<TRIPOS>BOND
     1    22    23    1
     2    23    21    1
     3    21    11    1
     4    11    12    1
     5    11    13    1
     6    13    14    1
     7    14    15    1
     8    15    16   am
     9    16    17    2
    10    16    10    1
    11    10     7    1
    12     1     7    1
    13     1     2    1
    14     2     3    1
    15     3     4    1
    16     4     5    1
    17     5    34    1
    18    34    35    1
    19     5     6    1
    20     6    24    1
    21    24    25    2
    22    24    26    2
    23    24    27    1
    24    27    28   ar
    25    28    29   ar
    26    29    30   ar
    27    30    31    1
    28    30    32   ar
    29    32    33   ar
    30     7     8    1
    31     8     9    1
    32    15    18    1
    33    18    19    1
    34    19    11    1
    35     9     7    1
    36     6     1    1
    37    33    27   ar
    38    12    20    1
