@<TRIPOS>MOLECULE
*****
 33 36 0 0 0
SMALL
GASTEIGER

@<TRIPOS>ATOM
      1 N          62.7748   82.5171   15.3513 N.pl3   1  UNL1       -0.3287
      2 C          62.9617   83.9947   15.5295 C.ar    1  UNL1        0.1959
      3 N          62.5760   84.7926   16.7397 N.ar    1  UNL1       -0.2123
      4 C          62.9430   86.2248   16.4869 C.ar    1  UNL1        0.1184
      5 C          62.7987   87.4608   17.3245 C.ar    1  UNL1        0.0271
      6 C          63.2668   88.7841   16.7956 C.ar    1  UNL1        0.0594
      7 C          63.8793   88.8714   15.4291 C.ar    1  UNL1        0.2262
      8 N          64.0237   87.6354   14.5916 N.ar    1  UNL1       -0.1926
      9 C          63.5556   86.3121   15.1205 C.ar    1  UNL1        0.1668
     10 N          63.5671   84.9338   14.5288 N.ar    1  UNL1       -0.2824
     11 H          62.3653   81.9825   16.0695 H       1  UNL1        0.1451
     12 H          63.0616   82.0818   14.5162 H       1  UNL1        0.1451
     13 O          64.3474   90.1947   14.9002 O.3     1  UNL1       -0.4613
     14 C          64.0403   90.5881   13.4857 C.3     1  UNL1        0.1995
     15 C          62.9497   90.0170   12.6287 C.3     1  UNL1        0.0783
     16 C          63.0053   90.6977   11.2932 C.3     1  UNL1        0.1461
     17 O          64.1302   91.6895   11.3248 O.3     1  UNL1       -0.3498
     18 C          64.7699   91.6218   12.6798 C.3     1  UNL1        0.1855
     19 C          64.0918   84.5603   13.1741 C.3     1  UNL1        0.1438
     20 C          63.1494   84.0784   12.1114 C.3     1  UNL1        0.1561
     21 O          62.8735   82.6114   11.9627 O.3     1  UNL1       -0.3780
     22 H          62.2476   82.4723   11.2348 H       1  UNL1        0.2109
     23 C          62.4828   85.0633   11.1973 C.ar    1  UNL1        0.0167
     24 C          61.5363   86.0838   11.7563 C.ar    1  UNL1       -0.0011
     25 C          60.8697   87.0687   10.8422 C.ar    1  UNL1        0.0037
     26 C          61.1497   87.0330    9.3690 C.ar    1  UNL1        0.0722
     27 C          62.0962   86.0125    8.8099 C.ar    1  UNL1        0.0150
     28 C          62.7628   85.0276    9.7241 C.ar    1  UNL1        0.0559
     29 CL         63.7093   84.0071    9.1650 Cl      1  UNL1       -0.0825
     30 C          60.4831   88.0179    8.4547 C.3     1  UNL1        0.4186
     31 F          59.8166   89.0027    7.5404 F       1  UNL1       -0.1659
     32 F          60.2593   86.9302    7.4463 F       1  UNL1       -0.1659
     33 F          60.7070   89.1055    9.4631 F       1  UNL1       -0.1659
@<TRIPOS>BOND
     1     1     2    1
     2     2     3   ar
     3     3     4   ar
     4     4     5   ar
     5     5     6   ar
     6     6     7   ar
     7     7    13    1
     8    13    14    1
     9    14    15    1
    10    15    16    1
    11    16    17    1
    12    17    18    1
    13     7     8   ar
    14     8     9   ar
    15     9    10   ar
    16    10    19    1
    17    19    20    1
    18    20    21    1
    19    20    23    1
    20    23    24   ar
    21    24    25   ar
    22    25    26   ar
    23    26    30    1
    24    30    31    1
    25    30    32    1
    26    30    33    1
    27    26    27   ar
    28    27    28   ar
    29    28    29    1
    30    10     2   ar
    31    28    23   ar
    32     9     4   ar
    33    18    14    1
    34     1    11    1
    35     1    12    1
    36    21    22    1
@<TRIPOS>MOLECULE
*****
 33 36 0 0 0
SMALL
GASTEIGER

@<TRIPOS>ATOM
      1 N          60.2428   89.7232    8.5853 N.pl3   1  UNL1       -0.3287
      2 C          60.8958   88.6223    9.3673 C.ar    1  UNL1        0.1959
      3 N          60.9590   87.1770    8.9709 N.ar    1  UNL1       -0.2123
      4 C          61.7024   86.4347   10.0417 C.ar    1  UNL1        0.1184
      5 C          62.0698   84.9880   10.1898 C.ar    1  UNL1        0.0271
      6 C          62.8333   84.5279   11.3961 C.ar    1  UNL1        0.0594
      7 C          63.2294   85.5144   12.4543 C.ar    1  UNL1        0.2262
      8 N          62.8621   86.9611   12.3062 N.ar    1  UNL1       -0.1926
      9 C          62.0986   87.4213   11.0999 C.ar    1  UNL1        0.1668
     10 N          61.6000   88.7732   10.6831 N.ar    1  UNL1       -0.2824
     11 H          59.8034   89.5238    7.7272 H       1  UNL1        0.1451
     12 H          60.2537   90.6453    8.9302 H       1  UNL1        0.1451
     13 O          63.9930   85.0542   13.6607 O.3     1  UNL1       -0.4613
     14 C          63.4527   85.3164   15.0352 C.3     1  UNL1        0.1995
     15 C          63.8391   86.4551   15.9320 C.3     1  UNL1        0.0783
     16 C          63.0564   86.3284   17.2053 C.3     1  UNL1        0.1461
     17 O          62.1864   85.1114   17.0956 O.3     1  UNL1       -0.3498
     18 C          62.4313   84.4859   15.7544 C.3     1  UNL1        0.1855
     19 C          61.7750   90.0517   11.4479 C.3     1  UNL1        0.1438
     20 C          62.9346   90.9538   11.1455 C.3     1  UNL1        0.1561
     21 O          63.0563   91.5913    9.7931 O.3     1  UNL1       -0.3780
     22 H          63.8561   92.1394    9.7648 H       1  UNL1        0.2109
     23 C          63.9726   91.2186   12.1955 C.ar    1  UNL1        0.0167
     24 C          63.8852   90.5324   13.5264 C.ar    1  UNL1       -0.0011
     25 C          64.9232   90.7971   14.5764 C.ar    1  UNL1        0.0037
     26 C          66.0486   91.7482   14.2955 C.ar    1  UNL1        0.0722
     27 C          66.1360   92.4344   12.9645 C.ar    1  UNL1        0.0150
     28 C          65.0980   92.1697   11.9145 C.ar    1  UNL1        0.0559
     29 CL         65.1854   92.8559   10.5836 Cl      1  UNL1       -0.0825
     30 C          67.0867   92.0130   15.3454 C.3     1  UNL1        0.4186
     31 F          68.1248   92.2779   16.3952 F       1  UNL1       -0.1659
     32 F          68.1606   91.5762   14.3936 F       1  UNL1       -0.1659
     33 F          66.0127   92.4498   16.2970 F       1  UNL1       -0.1659
@<TRIPOS>BOND
     1     1     2    1
     2     2     3   ar
     3     3     4   ar
     4     4     5   ar
     5     5     6   ar
     6     6     7   ar
     7     7    13    1
     8    13    14    1
     9    14    15    1
    10    15    16    1
    11    16    17    1
    12    17    18    1
    13     7     8   ar
    14     8     9   ar
    15     9    10   ar
    16    10    19    1
    17    19    20    1
    18    20    21    1
    19    20    23    1
    20    23    24   ar
    21    24    25   ar
    22    25    26   ar
    23    26    30    1
    24    30    31    1
    25    30    32    1
    26    30    33    1
    27    26    27   ar
    28    27    28   ar
    29    28    29    1
    30    10     2   ar
    31    28    23   ar
    32     9     4   ar
    33    18    14    1
    34     1    11    1
    35     1    12    1
    36    21    22    1
@<TRIPOS>MOLECULE
*****
 33 36 0 0 0
SMALL
GASTEIGER

@<TRIPOS>ATOM
      1 N          63.6970   91.2888   12.6523 N.pl3   1  UNL1       -0.3287
      2 C          63.7547   89.8536   13.0844 C.ar    1  UNL1        0.1959
      3 N          64.4162   89.3324   14.3257 N.ar    1  UNL1       -0.2123
      4 C          64.2314   87.8442   14.3596 C.ar    1  UNL1        0.1184
      5 C          64.6692   86.8006   15.3440 C.ar    1  UNL1        0.0271
      6 C          64.3313   85.3583   15.1080 C.ar    1  UNL1        0.0594
      7 C          63.5555   84.9597   13.8876 C.ar    1  UNL1        0.2262
      8 N          63.1177   86.0034   12.9032 N.ar    1  UNL1       -0.1926
      9 C          63.4556   87.4456   13.1392 C.ar    1  UNL1        0.1668
     10 N          63.1610   88.6875   12.3511 N.ar    1  UNL1       -0.2824
     11 H          64.1191   91.9864   13.2042 H       1  UNL1        0.1451
     12 H          63.2372   91.5333   11.8168 H       1  UNL1        0.1451
     13 O          63.2176   83.5174   13.6516 O.3     1  UNL1       -0.4613
     14 C          63.5198   82.8834   12.3263 C.3     1  UNL1        0.1995
     15 C          62.8124   81.7015   11.7325 C.3     1  UNL1        0.0783
     16 C          63.4379   81.4076   10.4012 C.3     1  UNL1        0.1461
     17 O          64.5320   82.4079   10.1722 O.3     1  UNL1       -0.3498
     18 C          64.5826   83.3200   11.3619 C.3     1  UNL1        0.1855
     19 C          62.4054   88.7519   11.0569 C.3     1  UNL1        0.1438
     20 C          61.3517   87.7289   10.7519 C.3     1  UNL1        0.1561
     21 O          60.1724   87.5715   11.6656 O.3     1  UNL1       -0.3780
     22 H          59.5915   86.8728   11.3262 H       1  UNL1        0.2109
     23 C          61.4770   86.8634    9.5333 C.ar    1  UNL1        0.0167
     24 C          62.6882   85.9977    9.3495 C.ar    1  UNL1       -0.0011
     25 C          62.8135   85.1322    8.1309 C.ar    1  UNL1        0.0037
     26 C          61.7276   85.1322    7.0960 C.ar    1  UNL1        0.0722
     27 C          60.5165   85.9978    7.2798 C.ar    1  UNL1        0.0150
     28 C          60.3912   86.8634    8.4985 C.ar    1  UNL1        0.0559
     29 CL         59.1800   87.7290    8.6822 Cl      1  UNL1       -0.0825
     30 C          61.8529   84.2666    5.8773 C.3     1  UNL1        0.4186
     31 F          61.9780   83.4010    4.6587 F       1  UNL1       -0.1659
     32 F          60.4155   83.8614    6.0176 F       1  UNL1       -0.1659
     33 F          63.2902   84.6719    5.7372 F       1  UNL1       -0.1659
@<TRIPOS>BOND
     1     1     2    1
     2     2     3   ar
     3     3     4   ar
     4     4     5   ar
     5     5     6   ar
     6     6     7   ar
     7     7    13    1
     8    13    14    1
     9    14    15    1
    10    15    16    1
    11    16    17    1
    12    17    18    1
    13     7     8   ar
    14     8     9   ar
    15     9    10   ar
    16    10    19    1
    17    19    20    1
    18    20    21    1
    19    20    23    1
    20    23    24   ar
    21    24    25   ar
    22    25    26   ar
    23    26    30    1
    24    30    31    1
    25    30    32    1
    26    30    33    1
    27    26    27   ar
    28    27    28   ar
    29    28    29    1
    30    10     2   ar
    31    28    23   ar
    32     9     4   ar
    33    18    14    1
    34     1    11    1
    35     1    12    1
    36    21    22    1
@<TRIPOS>MOLECULE
*****
 33 36 0 0 0
SMALL
GASTEIGER

@<TRIPOS>ATOM
      1 N          62.9281   83.0612   15.6825 N.pl3   1  UNL1       -0.3287
      2 C          63.1152   84.5493   15.7055 C.ar    1  UNL1        0.1959
      3 N          62.7307   85.4691   16.8263 N.ar    1  UNL1       -0.2123
      4 C          63.0976   86.8672   16.4252 C.ar    1  UNL1        0.1184
      5 C          62.9540   88.1837   17.1295 C.ar    1  UNL1        0.0271
      6 C          63.4217   89.4446   16.4651 C.ar    1  UNL1        0.0594
      7 C          64.0330   89.3889   15.0965 C.ar    1  UNL1        0.2262
      8 N          64.1766   88.0723   14.3922 N.ar    1  UNL1       -0.1926
      9 C          63.7089   86.8115   15.0566 C.ar    1  UNL1        0.1668
     10 N          63.7197   85.3790   14.6118 N.ar    1  UNL1       -0.2824
     11 H          62.5192   82.6046   16.4528 H       1  UNL1        0.1451
     12 H          63.2141   82.5412   14.8969 H       1  UNL1        0.1451
     13 O          64.5007   90.6498   14.4321 O.3     1  UNL1       -0.4613
     14 C          65.6352   91.4329   15.0235 C.3     1  UNL1        0.1995
     15 C          67.0769   91.3372   14.6207 C.3     1  UNL1        0.0783
     16 C          67.8599   92.2943   15.4699 C.3     1  UNL1        0.1461
     17 O          66.9020   92.9814   16.3975 O.3     1  UNL1       -0.3498
     18 C          65.5271   92.4490   16.1216 C.3     1  UNL1        0.1855
     19 C          64.2433   84.8662   13.3030 C.3     1  UNL1        0.1438
     20 C          63.3123   84.2063   12.3295 C.3     1  UNL1        0.1561
     21 O          63.0979   82.7226   12.3846 O.3     1  UNL1       -0.3780
     22 H          62.4718   82.4605   11.6918 H       1  UNL1        0.2109
     23 C          62.5957   85.0298   11.3008 C.ar    1  UNL1        0.0167
     24 C          61.5917   86.0583   11.7300 C.ar    1  UNL1       -0.0011
     25 C          60.8751   86.8819   10.7013 C.ar    1  UNL1        0.0037
     26 C          61.1624   86.6770    9.2435 C.ar    1  UNL1        0.0722
     27 C          62.1664   85.6485    8.8143 C.ar    1  UNL1        0.0150
     28 C          62.8831   84.8249    9.8430 C.ar    1  UNL1        0.0559
     29 CL         63.8871   83.7965    9.4138 Cl      1  UNL1       -0.0825
     30 C          60.4458   87.5005    8.2147 C.3     1  UNL1        0.4186
     31 F          59.7292   88.3239    7.1859 F       1  UNL1       -0.1659
     32 F          60.0964   86.2526    7.4593 F       1  UNL1       -0.1659
     33 F          60.7953   88.7483    8.9701 F       1  UNL1       -0.1659
@<TRIPOS>BOND
     1     1     2    1
     2     2     3   ar
     3     3     4   ar
     4     4     5   ar
     5     5     6   ar
     6     6     7   ar
     7     7    13    1
     8    13    14    1
     9    14    15    1
    10    15    16    1
    11    16    17    1
    12    17    18    1
    13     7     8   ar
    14     8     9   ar
    15     9    10   ar
    16    10    19    1
    17    19    20    1
    18    20    21    1
    19    20    23    1
    20    23    24   ar
    21    24    25   ar
    22    25    26   ar
    23    26    30    1
    24    30    31    1
    25    30    32    1
    26    30    33    1
    27    26    27   ar
    28    27    28   ar
    29    28    29    1
    30    10     2   ar
    31    28    23   ar
    32     9     4   ar
    33    18    14    1
    34     1    11    1
    35     1    12    1
    36    21    22    1
@<TRIPOS>MOLECULE
*****
 33 36 0 0 0
SMALL
GASTEIGER

@<TRIPOS>ATOM
      1 N          60.5031   90.4717    9.6083 N.pl3   1  UNL1       -0.3287
      2 C          61.0375   89.1544   10.0870 C.ar    1  UNL1        0.1959
      3 N          60.8020   87.8206    9.4424 N.ar    1  UNL1       -0.2123
      4 C          61.5202   86.7815   10.2514 C.ar    1  UNL1        0.1184
      5 C          61.6433   85.2950   10.0937 C.ar    1  UNL1        0.0271
      6 C          62.4459   84.5000   11.0806 C.ar    1  UNL1        0.0594
      7 C          63.1253   85.1917   12.2251 C.ar    1  UNL1        0.2262
      8 N          63.0022   86.6782   12.3828 N.ar    1  UNL1       -0.1926
      9 C          62.1997   87.4732   11.3959 C.ar    1  UNL1        0.1668
     10 N          61.9013   88.9397   11.2943 N.ar    1  UNL1       -0.2824
     11 H          59.9415   90.5109    8.8006 H       1  UNL1        0.1451
     12 H          60.7139   91.2971   10.1017 H       1  UNL1        0.1451
     13 O          63.9279   84.3966   13.2120 O.3     1  UNL1       -0.4613
     14 C          63.4886   83.0148   13.5960 C.3     1  UNL1        0.1995
     15 C          64.0391   81.7309   13.0496 C.3     1  UNL1        0.0783
     16 C          63.3124   80.5969   13.7098 C.3     1  UNL1        0.1461
     17 O          62.3128   81.1799   14.6643 O.3     1  UNL1       -0.3498
     18 C          62.4218   82.6742   14.5939 C.3     1  UNL1        0.1855
     19 C          62.3824   90.0045   12.2349 C.3     1  UNL1        0.1438
     20 C          63.4027   91.0043   11.7774 C.3     1  UNL1        0.1561
     21 O          63.2976   91.6107   10.4094 O.3     1  UNL1       -0.3780
     22 H          64.0303   92.2319   10.2740 H       1  UNL1        0.2109
     23 C          64.5280   91.3978   12.6877 C.ar    1  UNL1        0.0167
     24 C          64.6681   90.7468   14.0318 C.ar    1  UNL1       -0.0011
     25 C          65.7934   91.1404   14.9422 C.ar    1  UNL1        0.0037
     26 C          66.7788   92.1848   14.5084 C.ar    1  UNL1        0.0722
     27 C          66.6388   92.8358   13.1643 C.ar    1  UNL1        0.0150
     28 C          65.5134   92.4422   12.2540 C.ar    1  UNL1        0.0559
     29 CL         65.3734   93.0932   10.9098 Cl      1  UNL1       -0.0825
     30 C          67.9042   92.5784   15.4187 C.3     1  UNL1        0.4186
     31 F          69.0295   92.9720   16.3290 F       1  UNL1       -0.1659
     32 F          66.9159   92.9078   16.4979 F       1  UNL1       -0.1659
     33 F          68.8923   92.2489   14.3394 F       1  UNL1       -0.1659
@<TRIPOS>BOND
     1     1     2    1
     2     2     3   ar
     3     3     4   ar
     4     4     5   ar
     5     5     6   ar
     6     6     7   ar
     7     7    13    1
     8    13    14    1
     9    14    15    1
    10    15    16    1
    11    16    17    1
    12    17    18    1
    13     7     8   ar
    14     8     9   ar
    15     9    10   ar
    16    10    19    1
    17    19    20    1
    18    20    21    1
    19    20    23    1
    20    23    24   ar
    21    24    25   ar
    22    25    26   ar
    23    26    30    1
    24    30    31    1
    25    30    32    1
    26    30    33    1
    27    26    27   ar
    28    27    28   ar
    29    28    29    1
    30    10     2   ar
    31    28    23   ar
    32     9     4   ar
    33    18    14    1
    34     1    11    1
    35     1    12    1
    36    21    22    1
@<TRIPOS>MOLECULE
*****
 33 36 0 0 0
SMALL
GASTEIGER

@<TRIPOS>ATOM
      1 N          60.2851   90.2338    9.4608 N.pl3   1  UNL1       -0.3287
      2 C          60.9018   88.9351    9.8886 C.ar    1  UNL1        0.1959
      3 N          60.9673   87.6787    9.0717 N.ar    1  UNL1       -0.2123
      4 C          61.6673   86.6319    9.8866 C.ar    1  UNL1        0.1184
      5 C          62.0177   85.2025    9.5968 C.ar    1  UNL1        0.0271
      6 C          62.7354   84.3825   10.6276 C.ar    1  UNL1        0.0594
      7 C          63.1026   84.9918   11.9482 C.ar    1  UNL1        0.2262
      8 N          62.7521   86.4212   12.2380 N.ar    1  UNL1       -0.1926
      9 C          62.0344   87.2412   11.2072 C.ar    1  UNL1        0.1668
     10 N          61.5614   88.6647   11.2084 N.ar    1  UNL1       -0.2824
     11 H          59.8740   90.3136    8.5698 H       1  UNL1        0.1451
     12 H          60.2914   91.0064   10.0710 H       1  UNL1        0.1451
     13 O          63.8202   84.1718   12.9790 O.3     1  UNL1       -0.4613
     14 C          63.2579   82.8497   13.4101 C.3     1  UNL1        0.1995
     15 C          63.5135   81.5262   12.7521 C.3     1  UNL1        0.0783
     16 C          62.7548   80.4775   13.5102 C.3     1  UNL1        0.1461
     17 O          62.0304   81.1529   14.6368 O.3     1  UNL1       -0.3498
     18 C          62.3413   82.6190   14.5748 C.3     1  UNL1        0.1855
     19 C          61.7200   89.6455   12.3321 C.3     1  UNL1        0.1438
     20 C          63.0724   89.8818   12.9361 C.3     1  UNL1        0.1561
     21 O          63.5555   89.0109   14.0578 O.3     1  UNL1       -0.3780
     22 H          64.4418   89.2962   14.3300 H       1  UNL1        0.2109
     23 C          63.9420   90.9891   12.4184 C.ar    1  UNL1        0.0167
     24 C          63.8275   91.4264   10.9882 C.ar    1  UNL1       -0.0011
     25 C          64.6971   92.5336   10.4705 C.ar    1  UNL1        0.0037
     26 C          65.6811   93.2035   11.3832 C.ar    1  UNL1        0.0722
     27 C          65.7955   92.7663   12.8134 C.ar    1  UNL1        0.0150
     28 C          64.9260   91.6590   13.3311 C.ar    1  UNL1        0.0559
     29 CL         65.0404   91.2217   14.7613 Cl      1  UNL1       -0.0825
     30 C          66.5507   94.3108   10.8656 C.3     1  UNL1        0.4186
     31 F          67.4202   95.4181   10.3481 F       1  UNL1       -0.1659
     32 F          66.0358   95.2186   11.9430 F       1  UNL1       -0.1659
     33 F          67.0655   93.4029    9.7883 F       1  UNL1       -0.1659
@<TRIPOS>BOND
     1     1     2    1
     2     2     3   ar
     3     3     4   ar
     4     4     5   ar
     5     5     6   ar
     6     6     7   ar
     7     7    13    1
     8    13    14    1
     9    14    15    1
    10    15    16    1
    11    16    17    1
    12    17    18    1
    13     7     8   ar
    14     8     9   ar
    15     9    10   ar
    16    10    19    1
    17    19    20    1
    18    20    21    1
    19    20    23    1
    20    23    24   ar
    21    24    25   ar
    22    25    26   ar
    23    26    30    1
    24    30    31    1
    25    30    32    1
    26    30    33    1
    27    26    27   ar
    28    27    28   ar
    29    28    29    1
    30    10     2   ar
    31    28    23   ar
    32     9     4   ar
    33    18    14    1
    34     1    11    1
    35     1    12    1
    36    21    22    1
@<TRIPOS>MOLECULE
*****
 33 36 0 0 0
SMALL
GASTEIGER

@<TRIPOS>ATOM
      1 N          62.6714   91.6234    9.2111 N.pl3   1  UNL1       -0.3287
      2 C          63.0295   91.2575   10.6210 C.ar    1  UNL1        0.1959
      3 N          64.3674   91.4539   11.2701 N.ar    1  UNL1       -0.2123
      4 C          64.2775   90.9487   12.6796 C.ar    1  UNL1        0.1184
      5 C          65.2844   90.8862   13.7896 C.ar    1  UNL1        0.0271
      6 C          64.8978   90.3150   15.1216 C.ar    1  UNL1        0.0594
      7 C          63.5042   89.8063   15.3436 C.ar    1  UNL1        0.2262
      8 N          62.4973   89.8688   14.2336 N.ar    1  UNL1       -0.1926
      9 C          62.8839   90.4400   12.9016 C.ar    1  UNL1        0.1668
     10 N          62.1127   90.6309   11.6293 N.ar    1  UNL1       -0.2824
     11 H          63.3459   92.0326    8.6222 H       1  UNL1        0.1451
     12 H          61.7618   91.4543    8.8745 H       1  UNL1        0.1451
     13 O          63.1177   89.2350   16.6756 O.3     1  UNL1       -0.4613
     14 C          63.0409   87.7485   16.8604 C.3     1  UNL1        0.1995
     15 C          63.6421   86.7152   15.9544 C.3     1  UNL1        0.0783
     16 C          63.3222   85.3623   16.5177 C.3     1  UNL1        0.1461
     17 O          62.5234   85.5594   17.7719 O.3     1  UNL1       -0.3498
     18 C          62.3496   87.0341   17.9837 C.3     1  UNL1        0.1855
     19 C          60.6767   90.2601   11.4047 C.3     1  UNL1        0.1438
     20 C          60.2566   88.8211   11.4562 C.3     1  UNL1        0.1561
     21 O          59.4210   88.3241   12.5985 O.3     1  UNL1       -0.3780
     22 H          59.2393   87.3788   12.4789 H       1  UNL1        0.2109
     23 C          60.6722   87.8790   10.3655 C.ar    1  UNL1        0.0167
     24 C          59.8723   87.7981    9.0992 C.ar    1  UNL1       -0.0011
     25 C          60.2879   86.8560    8.0084 C.ar    1  UNL1        0.0037
     26 C          61.5033   85.9947    8.1841 C.ar    1  UNL1        0.0722
     27 C          62.3032   86.0755    9.4504 C.ar    1  UNL1        0.0150
     28 C          61.8876   87.0177   10.5411 C.ar    1  UNL1        0.0559
     29 CL         62.6875   87.0985   11.8075 Cl      1  UNL1       -0.0825
     30 C          61.9189   85.0525    7.0934 C.3     1  UNL1        0.4186
     31 F          62.3345   84.1103    6.0027 F       1  UNL1       -0.1659
     32 F          60.4876   84.9157    6.6662 F       1  UNL1       -0.1659
     33 F          63.3502   85.1893    7.5206 F       1  UNL1       -0.1659
@<TRIPOS>BOND
     1     1     2    1
     2     2     3   ar
     3     3     4   ar
     4     4     5   ar
     5     5     6   ar
     6     6     7   ar
     7     7    13    1
     8    13    14    1
     9    14    15    1
    10    15    16    1
    11    16    17    1
    12    17    18    1
    13     7     8   ar
    14     8     9   ar
    15     9    10   ar
    16    10    19    1
    17    19    20    1
    18    20    21    1
    19    20    23    1
    20    23    24   ar
    21    24    25   ar
    22    25    26   ar
    23    26    30    1
    24    30    31    1
    25    30    32    1
    26    30    33    1
    27    26    27   ar
    28    27    28   ar
    29    28    29    1
    30    10     2   ar
    31    28    23   ar
    32     9     4   ar
    33    18    14    1
    34     1    11    1
    35     1    12    1
    36    21    22    1
@<TRIPOS>MOLECULE
*****
 33 36 0 0 0
SMALL
GASTEIGER

@<TRIPOS>ATOM
      1 N          60.5347   90.4895    9.5703 N.pl3   1  UNL1       -0.3287
      2 C          61.0574   89.1749   10.0691 C.ar    1  UNL1        0.1959
      3 N          60.8148   87.8343    9.4416 N.ar    1  UNL1       -0.2123
      4 C          61.5220   86.8010   10.2676 C.ar    1  UNL1        0.1184
      5 C          61.6348   85.3116   10.1306 C.ar    1  UNL1        0.0271
      6 C          62.4273   84.5242   11.1315 C.ar    1  UNL1        0.0594
      7 C          63.1070   85.2263   12.2696 C.ar    1  UNL1        0.2262
      8 N          62.9942   86.7158   12.4066 N.ar    1  UNL1       -0.1926
      9 C          62.2017   87.5031   11.4057 C.ar    1  UNL1        0.1668
     10 N          61.9146   88.9702   11.2829 N.ar    1  UNL1       -0.2824
     11 H          59.9769   90.5218    8.7598 H       1  UNL1        0.1451
     12 H          60.7495   91.3199   10.0535 H       1  UNL1        0.1451
     13 O          63.8995   84.4389   13.2706 O.3     1  UNL1       -0.4613
     14 C          63.4884   83.0390   13.6187 C.3     1  UNL1        0.1995
     15 C          64.0553   81.7814   13.0297 C.3     1  UNL1        0.0783
     16 C          63.3555   80.6160   13.6640 C.3     1  UNL1        0.1461
     17 O          62.3561   81.1535   14.6451 O.3     1  UNL1       -0.3498
     18 C          62.4383   82.6510   14.6171 C.3     1  UNL1        0.1855
     19 C          62.3995   90.0442   12.2111 C.3     1  UNL1        0.1438
     20 C          63.4398   91.0210   11.7495 C.3     1  UNL1        0.1561
     21 O          63.3634   91.6013   10.3683 O.3     1  UNL1       -0.3780
     22 H          64.1063   92.2099   10.2318 H       1  UNL1        0.2109
     23 C          64.5567   91.4178   12.6689 C.ar    1  UNL1        0.0167
     24 C          65.4209   92.5971   12.3337 C.ar    1  UNL1       -0.0011
     25 C          66.5378   92.9938   13.2531 C.ar    1  UNL1        0.0037
     26 C          66.7904   92.2113   14.5076 C.ar    1  UNL1        0.0722
     27 C          65.9261   91.0320   14.8428 C.ar    1  UNL1        0.0150
     28 C          64.8092   90.6353   13.9234 C.ar    1  UNL1        0.0559
     29 CL         63.9450   89.4560   14.2585 Cl      1  UNL1       -0.0825
     30 C          67.9072   92.6080   15.4271 C.3     1  UNL1        0.4186
     31 F          69.0241   93.0046   16.3465 F       1  UNL1       -0.1659
     32 F          68.9014   92.3328   14.3381 F       1  UNL1       -0.1659
     33 F          66.9130   92.8831   16.5160 F       1  UNL1       -0.1659
@<TRIPOS>BOND
     1     1     2    1
     2     2     3   ar
     3     3     4   ar
     4     4     5   ar
     5     5     6   ar
     6     6     7   ar
     7     7    13    1
     8    13    14    1
     9    14    15    1
    10    15    16    1
    11    16    17    1
    12    17    18    1
    13     7     8   ar
    14     8     9   ar
    15     9    10   ar
    16    10    19    1
    17    19    20    1
    18    20    21    1
    19    20    23    1
    20    23    24   ar
    21    24    25   ar
    22    25    26   ar
    23    26    30    1
    24    30    31    1
    25    30    32    1
    26    30    33    1
    27    26    27   ar
    28    27    28   ar
    29    28    29    1
    30    10     2   ar
    31    28    23   ar
    32     9     4   ar
    33    18    14    1
    34     1    11    1
    35     1    12    1
    36    21    22    1
@<TRIPOS>MOLECULE
*****
 33 36 0 0 0
SMALL
GASTEIGER

@<TRIPOS>ATOM
      1 N          62.6204   84.6918   16.9049 N.pl3   1  UNL1       -0.3287
      2 C          63.0116   86.0863   16.5146 C.ar    1  UNL1        0.1959
      3 N          62.6159   87.3453   17.2276 N.ar    1  UNL1       -0.2123
      4 C          63.2268   88.5037   16.4964 C.ar    1  UNL1        0.1184
      5 C          63.1789   89.9829   16.7409 C.ar    1  UNL1        0.0271
      6 C          63.9043   90.9190   15.8203 C.ar    1  UNL1        0.0594
      7 C          64.6775   90.3760   14.6553 C.ar    1  UNL1        0.2262
      8 N          64.7255   88.8969   14.4109 N.ar    1  UNL1       -0.1926
      9 C          64.0001   87.9608   15.3314 C.ar    1  UNL1        0.1668
     10 N          63.8671   86.4667   15.3426 N.ar    1  UNL1       -0.2824
     11 H          62.0526   84.5428   17.6952 H       1  UNL1        0.1451
     12 H          62.9316   83.9255   16.3708 H       1  UNL1        0.1451
     13 O          65.4029   91.3123   13.7348 O.3     1  UNL1       -0.4613
     14 C          66.6435   92.0133   14.2032 C.3     1  UNL1        0.1995
     15 C          66.7402   92.9466   15.3734 C.3     1  UNL1        0.0783
     16 C          68.1617   93.4143   15.4771 C.3     1  UNL1        0.1461
     17 O          68.9435   92.7699   14.3709 O.3     1  UNL1       -0.3498
     18 C          68.0052   91.9041   13.5836 C.3     1  UNL1        0.1855
     19 C          64.4816   85.5194   14.3553 C.3     1  UNL1        0.1438
     20 C          63.6255   84.5063   13.6549 C.3     1  UNL1        0.1561
     21 O          63.1631   83.2810   14.3862 O.3     1  UNL1       -0.3780
     22 H          62.6234   82.7349   13.7933 H       1  UNL1        0.2109
     23 C          63.2316   84.7185   12.2232 C.ar    1  UNL1        0.0167
     24 C          62.3112   85.8450   11.8575 C.ar    1  UNL1       -0.0011
     25 C          61.9173   86.0572   10.4258 C.ar    1  UNL1        0.0037
     26 C          62.4439   85.1428    9.3597 C.ar    1  UNL1        0.0722
     27 C          63.3643   84.0162    9.7253 C.ar    1  UNL1        0.0150
     28 C          63.7582   83.8041   11.1570 C.ar    1  UNL1        0.0559
     29 CL         64.6786   82.6776   11.5227 Cl      1  UNL1       -0.0825
     30 C          62.0501   85.3548    7.9279 C.3     1  UNL1        0.4186
     31 F          61.6562   85.5670    6.4961 F       1  UNL1       -0.1659
     32 F          60.9187   86.2351    8.3696 F       1  UNL1       -0.1659
     33 F          63.1814   84.4746    7.4863 F       1  UNL1       -0.1659
@<TRIPOS>BOND
     1     1     2    1
     2     2     3   ar
     3     3     4   ar
     4     4     5   ar
     5     5     6   ar
     6     6     7   ar
     7     7    13    1
     8    13    14    1
     9    14    15    1
    10    15    16    1
    11    16    17    1
    12    17    18    1
    13     7     8   ar
    14     8     9   ar
    15     9    10   ar
    16    10    19    1
    17    19    20    1
    18    20    21    1
    19    20    23    1
    20    23    24   ar
    21    24    25   ar
    22    25    26   ar
    23    26    30    1
    24    30    31    1
    25    30    32    1
    26    30    33    1
    27    26    27   ar
    28    27    28   ar
    29    28    29    1
    30    10     2   ar
    31    28    23   ar
    32     9     4   ar
    33    18    14    1
    34     1    11    1
    35     1    12    1
    36    21    22    1
