@<TRIPOS>MOLECULE
*****
 56 62 0 0 0
SMALL
GASTEIGER

@<TRIPOS>ATOM
      1 N          65.5927   89.2852   14.5189 N.3     1  UNL1       -0.1862
      2 C          65.8487   88.0302   15.2996 C.3     1  UNL1        0.1775
      3 C          65.0201   86.8061   15.0445 C.2     1  UNL1        0.2452
      4 O          65.2761   85.5511   15.8253 O.2     1  UNL1       -0.2732
      5 N          63.9357   86.8369   14.0087 N.am    1  UNL1       -0.2541
      6 C          63.1071   85.6128   13.7536 C.3     1  UNL1        0.1577
      7 C          62.0227   85.6436   12.7178 C.2     1  UNL1        0.2445
      8 O          61.1941   84.4195   12.4627 O.2     1  UNL1       -0.2731
      9 N          61.7667   86.8986   11.9370 N.am    1  UNL1       -0.2705
     10 C          62.5952   88.1227   12.1921 C.3     1  UNL1        0.1359
     11 C          63.6797   88.0919   13.2280 C.3     1  UNL1        0.1908
     12 N          64.5083   89.3160   13.4831 N.am    1  UNL1       -0.1863
     13 C          64.2523   90.5710   12.7023 C.2     1  UNL1        0.3191
     14 O          63.1678   90.6018   11.6665 O.2     1  UNL1       -0.2512
     15 N          65.0808   91.7951   12.9574 N.am    1  UNL1       -0.2836
     16 H          65.7926   91.7748   13.6372 H       1  UNL1        0.1513
     17 C          66.4213   90.5093   14.7740 C.3     1  UNL1        0.1188
     18 C          66.8010   92.7296   16.0685 C.2     1  UNL1       -0.0034
     19 C          65.9124   91.5816   15.6911 C.2     1  UNL1       -0.0071
     20 C          63.3631   84.3579   14.5343 C.3     1  UNL1        0.0556
     21 C          63.1588   83.0188   13.8899 C.ar    1  UNL1       -0.0198
     22 C          63.9494   82.6445   12.6714 C.ar    1  UNL1       -0.0011
     23 C          63.7451   81.3054   12.0270 C.ar    1  UNL1        0.0363
     24 C          62.7502   80.3408   12.6011 C.ar    1  UNL1        0.1337
     25 O          62.5459   79.0018   11.9566 O.3     1  UNL1       -0.5055
     26 C          61.9595   80.7151   13.8196 C.ar    1  UNL1        0.0363
     27 C          62.1638   82.0542   14.4640 C.ar    1  UNL1       -0.0011
     28 H          63.0398   78.7679   11.1955 H       1  UNL1        0.2922
     29 C          60.6822   86.9294   10.9012 C.3     1  UNL1        0.1217
     30 C          60.3536   88.2127   10.1973 C.ar    1  UNL1        0.0135
     31 C          59.9593   89.4234   10.9902 C.ar    1  UNL1       -0.0012
     32 C          59.6307   90.7065   10.2864 C.ar    1  UNL1       -0.0002
     33 C          59.6965   90.7790    8.7896 C.ar    1  UNL1        0.0015
     34 C          60.0908   89.5683    7.9967 C.ar    1  UNL1        0.0170
     35 C          60.2419   89.3399    6.5219 C.ar    1  UNL1        0.0186
     36 C          60.6638   87.9155    6.3143 C.ar    1  UNL1        0.0759
     37 N          60.7735   87.2637    7.6607 N.ar    1  UNL1       -0.3242
     38 C          61.1681   85.8402    7.9217 C.3     1  UNL1        0.1305
     39 C          60.4194   88.2852    8.7005 C.ar    1  UNL1        0.0575
     40 C          60.0115   90.3573    5.4439 C.ar    1  UNL1        0.0015
     41 C          61.1631   90.8489    4.6181 C.ar    1  UNL1        0.0003
     42 C          60.9326   91.8662    3.5402 C.ar    1  UNL1        0.0064
     43 C          59.5506   92.3919    3.2881 C.ar    1  UNL1        0.0756
     44 C          58.3989   91.9003    4.1139 C.ar    1  UNL1        0.0064
     45 C          58.6294   90.8830    5.1918 C.ar    1  UNL1        0.0003
     46 C          59.3201   93.4092    2.2102 C.2     1  UNL1        0.3413
     47 O          59.7201   94.8382    2.4297 O.2     1  UNL1       -0.2449
     48 O          58.6898   92.9977    0.9127 O.3     1  UNL1       -0.4413
     49 C          59.5437   92.4706   -0.2021 C.3     1  UNL1        0.2560
     50 C          64.8249   93.0500   12.1767 C.3     1  UNL1        0.1177
     51 C          65.8323   93.5277   11.1732 C.ar    1  UNL1       -0.0025
     52 C          66.7789   92.5526   10.5383 C.ar    1  UNL1       -0.0026
     53 C          67.7863   93.0302    9.5348 C.ar    1  UNL1       -0.0003
     54 C          67.8472   94.4829    9.1662 C.ar    1  UNL1       -0.0000
     55 C          66.9005   95.4581    9.8011 C.ar    1  UNL1       -0.0003
     56 C          65.8931   94.9805   10.8046 C.ar    1  UNL1       -0.0026
@<TRIPOS>BOND
     1    18    19    2
     2    19    17    1
     3    17     1    1
     4     1     2    1
     5     2     3    1
     6     3     4    2
     7     3     5   am
     8     5     6    1
     9     6    20    1
    10    20    21    1
    11    21    22   ar
    12    22    23   ar
    13    23    24   ar
    14    24    25    1
    15    24    26   ar
    16    26    27   ar
    17     6     7    1
    18     7     8    2
    19     7     9   am
    20     9    29    1
    21    29    30    1
    22    30    31   ar
    23    31    32   ar
    24    32    33   ar
    25    33    34   ar
    26    34    35   ar
    27    35    40    1
    28    40    41   ar
    29    41    42   ar
    30    42    43   ar
    31    43    46    1
    32    46    47    2
    33    46    48    1
    34    48    49    1
    35    43    44   ar
    36    44    45   ar
    37    35    36   ar
    38    36    37   ar
    39    37    38    1
    40    37    39   ar
    41     9    10    1
    42    11    10    1
    43    11    12    1
    44    12    13   am
    45    13    14    2
    46    13    15   am
    47    15    50    1
    48    50    51    1
    49    51    52   ar
    50    52    53   ar
    51    53    54   ar
    52    54    55   ar
    53    55    56   ar
    54    12     1    1
    55    56    51   ar
    56    11     5    1
    57    27    21   ar
    58    39    30   ar
    59    39    34   ar
    60    45    40   ar
    61    25    28    1
    62    15    16    1
@<TRIPOS>MOLECULE
*****
 56 62 0 0 0
SMALL
GASTEIGER

@<TRIPOS>ATOM
      1 N          65.4149   89.7552   13.8877 N.3     1  UNL1       -0.1862
      2 C          65.8202   88.6266   14.7888 C.3     1  UNL1        0.1775
      3 C          65.0672   87.3298   14.7516 C.2     1  UNL1        0.2452
      4 O          65.4725   86.2011   15.6528 O.2     1  UNL1       -0.2732
      5 N          63.9091   87.1616   13.8134 N.am    1  UNL1       -0.2541
      6 C          63.1562   85.8647   13.7762 C.3     1  UNL1        0.1577
      7 C          61.9981   85.6965   12.8379 C.2     1  UNL1        0.2445
      8 O          61.2451   84.3997   12.8007 O.2     1  UNL1       -0.2731
      9 N          61.5928   86.8252   11.9368 N.am    1  UNL1       -0.2705
     10 C          62.3457   88.1220   11.9739 C.3     1  UNL1        0.1359
     11 C          63.5039   88.2902   12.9123 C.3     1  UNL1        0.1908
     12 N          64.2568   89.5870   12.9495 N.am    1  UNL1       -0.1863
     13 C          63.8515   90.7156   12.0483 C.2     1  UNL1        0.3191
     14 O          62.6934   90.5474   11.1100 O.2     1  UNL1       -0.2512
     15 N          64.6045   92.0124   12.0855 N.am    1  UNL1       -0.2836
     16 H          65.3646   92.1228   12.7013 H       1  UNL1        0.1513
     17 C          66.1679   91.0520   13.9249 C.3     1  UNL1        0.1188
     18 C          67.0832   92.6906   15.7212 C.2     1  UNL1       -0.0034
     19 C          67.1030   91.3440   15.0607 C.2     1  UNL1       -0.0071
     20 C          63.5614   84.7361   14.6773 C.3     1  UNL1        0.0556
     21 C          63.2719   83.3188   14.2807 C.ar    1  UNL1       -0.0198
     22 C          62.0711   82.6141   14.8390 C.ar    1  UNL1       -0.0011
     23 C          61.7816   81.1968   14.4424 C.ar    1  UNL1        0.0363
     24 C          62.6928   80.4841   13.4876 C.ar    1  UNL1        0.1337
     25 O          62.4032   79.0667   13.0911 O.3     1  UNL1       -0.5055
     26 C          63.8936   81.1887   12.9293 C.ar    1  UNL1        0.0363
     27 C          64.1831   82.6060   13.3258 C.ar    1  UNL1       -0.0011
     28 H          61.6532   78.6265   13.4398 H       1  UNL1        0.2922
     29 C          60.4346   86.6570   10.9985 C.3     1  UNL1        0.1217
     30 C          60.6063   86.9439    9.5362 C.ar    1  UNL1        0.0135
     31 C          61.1467   85.8842    8.6224 C.ar    1  UNL1       -0.0012
     32 C          61.3183   86.1710    7.1601 C.ar    1  UNL1       -0.0002
     33 C          60.9495   87.5176    6.6117 C.ar    1  UNL1        0.0015
     34 C          60.4091   88.5772    7.5255 C.ar    1  UNL1        0.0170
     35 C          59.9629   89.9871    7.2743 C.ar    1  UNL1        0.0186
     36 C          59.5155   90.5716    8.5812 C.ar    1  UNL1        0.0759
     37 N          59.6852   89.5230    9.6402 N.ar    1  UNL1       -0.3242
     38 C          59.3598   89.6795   11.0961 C.3     1  UNL1        0.1305
     39 C          60.2375   88.2904    8.9877 C.ar    1  UNL1        0.0575
     40 C          59.9639   90.6893    5.9486 C.ar    1  UNL1        0.0015
     41 C          58.6957   91.2872    5.4157 C.ar    1  UNL1        0.0003
     42 C          58.6967   91.9892    4.0901 C.ar    1  UNL1        0.0064
     43 C          59.9660   92.0935    3.2976 C.ar    1  UNL1        0.0756
     44 C          61.2343   91.4956    3.8306 C.ar    1  UNL1        0.0064
     45 C          61.2332   90.7935    5.1561 C.ar    1  UNL1        0.0003
     46 C          59.9670   92.7956    1.9721 C.2     1  UNL1        0.3413
     47 O          59.4902   94.2144    1.8746 O.2     1  UNL1       -0.2449
     48 O          60.4447   92.0789    0.7440 O.3     1  UNL1       -0.4413
     49 C          61.2710   92.8061   -0.2750 C.3     1  UNL1        0.2560
     50 C          64.1992   93.1411   11.1844 C.3     1  UNL1        0.1177
     51 C          65.2461   93.9432   10.4699 C.ar    1  UNL1       -0.0025
     52 C          65.0068   95.3941   10.1736 C.ar    1  UNL1       -0.0026
     53 C          66.0537   96.1962    9.4591 C.ar    1  UNL1       -0.0003
     54 C          67.3399   95.5476    9.0408 C.ar    1  UNL1       -0.0000
     55 C          67.5792   94.0967    9.3371 C.ar    1  UNL1       -0.0003
     56 C          66.5324   93.2945   10.0516 C.ar    1  UNL1       -0.0026
@<TRIPOS>BOND
     1    18    19    2
     2    19    17    1
     3    17     1    1
     4     1     2    1
     5     2     3    1
     6     3     4    2
     7     3     5   am
     8     5     6    1
     9     6    20    1
    10    20    21    1
    11    21    22   ar
    12    22    23   ar
    13    23    24   ar
    14    24    25    1
    15    24    26   ar
    16    26    27   ar
    17     6     7    1
    18     7     8    2
    19     7     9   am
    20     9    29    1
    21    29    30    1
    22    30    31   ar
    23    31    32   ar
    24    32    33   ar
    25    33    34   ar
    26    34    35   ar
    27    35    40    1
    28    40    41   ar
    29    41    42   ar
    30    42    43   ar
    31    43    46    1
    32    46    47    2
    33    46    48    1
    34    48    49    1
    35    43    44   ar
    36    44    45   ar
    37    35    36   ar
    38    36    37   ar
    39    37    38    1
    40    37    39   ar
    41     9    10    1
    42    11    10    1
    43    11    12    1
    44    12    13   am
    45    13    14    2
    46    13    15   am
    47    15    50    1
    48    50    51    1
    49    51    52   ar
    50    52    53   ar
    51    53    54   ar
    52    54    55   ar
    53    55    56   ar
    54    12     1    1
    55    56    51   ar
    56    11     5    1
    57    27    21   ar
    58    39    30   ar
    59    39    34   ar
    60    45    40   ar
    61    25    28    1
    62    15    16    1
@<TRIPOS>MOLECULE
*****
 56 62 0 0 0
SMALL
GASTEIGER

@<TRIPOS>ATOM
      1 N          64.4850   83.1121   13.3415 N.3     1  UNL1       -0.1862
      2 C          65.0774   83.9716   14.4187 C.3     1  UNL1        0.1775
      3 C          64.6643   85.4081   14.5441 C.2     1  UNL1        0.2452
      4 O          65.2568   86.2676   15.6214 O.2     1  UNL1       -0.2732
      5 N          63.6588   85.9852   13.5924 N.am    1  UNL1       -0.2541
      6 C          63.2456   87.4217   13.7179 C.3     1  UNL1        0.1577
      7 C          62.2401   87.9988   12.7661 C.2     1  UNL1        0.2445
      8 O          61.8269   89.4353   12.8916 O.2     1  UNL1       -0.2731
      9 N          61.6476   87.1393   11.6889 N.am    1  UNL1       -0.2705
     10 C          62.0607   85.7028   11.5635 C.3     1  UNL1        0.1359
     11 C          63.0663   85.1257   12.5153 C.3     1  UNL1        0.1908
     12 N          63.4795   83.6892   12.3898 N.am    1  UNL1       -0.1863
     13 C          62.8870   82.8297   11.3126 C.2     1  UNL1        0.3191
     14 O          61.8814   83.4068   10.3609 O.2     1  UNL1       -0.2512
     15 N          63.3001   81.3932   11.1871 N.am    1  UNL1       -0.2836
     16 H          63.9601   81.0145   11.8118 H       1  UNL1        0.1513
     17 C          64.8982   81.6756   13.2161 C.3     1  UNL1        0.1188
     18 C          62.6976   80.6398   14.1296 C.2     1  UNL1       -0.0034
     19 C          64.1931   80.6199   14.0150 C.2     1  UNL1       -0.0071
     20 C          63.8380   88.2812   14.7950 C.3     1  UNL1        0.0556
     21 C          64.3954   89.6317   14.4553 C.ar    1  UNL1       -0.0198
     22 C          64.4446   90.0849   13.0263 C.ar    1  UNL1       -0.0011
     23 C          65.0020   91.4355   12.6866 C.ar    1  UNL1        0.0363
     24 C          65.5102   92.3327   13.7759 C.ar    1  UNL1        0.1337
     25 O          66.0676   93.6833   13.4362 O.3     1  UNL1       -0.5055
     26 C          65.4610   91.8795   15.2050 C.ar    1  UNL1        0.0363
     27 C          64.9036   90.5290   15.5447 C.ar    1  UNL1       -0.0011
     28 H          66.0983   93.9664   12.5435 H       1  UNL1        0.2922
     29 C          60.6420   87.7163   10.7372 C.3     1  UNL1        0.1217
     30 C          61.0224   88.8636    9.8488 C.ar    1  UNL1        0.0135
     31 C          62.0413   89.8633   10.3098 C.ar    1  UNL1       -0.0012
     32 C          62.4217   91.0106    9.4215 C.ar    1  UNL1       -0.0002
     33 C          61.7832   91.1581    8.0723 C.ar    1  UNL1        0.0015
     34 C          60.7643   90.1584    7.6113 C.ar    1  UNL1        0.0170
     35 C          59.9718   90.0451    6.3428 C.ar    1  UNL1        0.0186
     36 C          59.1016   88.8278    6.4472 C.ar    1  UNL1        0.0759
     37 N          59.3563   88.1888    7.7801 N.ar    1  UNL1       -0.3242
     38 C          58.6989   86.9457    8.3019 C.3     1  UNL1        0.1305
     39 C          60.3839   89.0112    8.4996 C.ar    1  UNL1        0.0575
     40 C          60.0379   90.9842    5.1750 C.ar    1  UNL1        0.0015
     41 C          58.8037   91.7072    4.7232 C.ar    1  UNL1        0.0003
     42 C          58.8699   92.6463    3.5554 C.ar    1  UNL1        0.0064
     43 C          60.1701   92.8624    2.8394 C.ar    1  UNL1        0.0756
     44 C          61.4043   92.1394    3.2912 C.ar    1  UNL1        0.0064
     45 C          61.3381   91.2003    4.4590 C.ar    1  UNL1        0.0003
     46 C          60.2362   93.8015    1.6717 C.2     1  UNL1        0.3413
     47 O          59.8258   95.2346    1.8376 O.2     1  UNL1       -0.2449
     48 O          60.7126   93.3075    0.3378 O.3     1  UNL1       -0.4413
     49 C          60.1765   92.0230   -0.2214 C.3     1  UNL1        0.2560
     50 C          62.7077   80.5338   10.1100 C.3     1  UNL1        0.1177
     51 C          63.0868   79.0857   10.0125 C.ar    1  UNL1       -0.0025
     52 C          62.5074   78.0923   10.9754 C.ar    1  UNL1       -0.0026
     53 C          62.8865   76.6443   10.8779 C.ar    1  UNL1       -0.0003
     54 C          63.8449   76.1896    9.8174 C.ar    1  UNL1       -0.0000
     55 C          64.4243   77.1831    8.8544 C.ar    1  UNL1       -0.0003
     56 C          64.0453   78.6311    8.9519 C.ar    1  UNL1       -0.0026
@<TRIPOS>BOND
     1    18    19    2
     2    19    17    1
     3    17     1    1
     4     1     2    1
     5     2     3    1
     6     3     4    2
     7     3     5   am
     8     5     6    1
     9     6    20    1
    10    20    21    1
    11    21    22   ar
    12    22    23   ar
    13    23    24   ar
    14    24    25    1
    15    24    26   ar
    16    26    27   ar
    17     6     7    1
    18     7     8    2
    19     7     9   am
    20     9    29    1
    21    29    30    1
    22    30    31   ar
    23    31    32   ar
    24    32    33   ar
    25    33    34   ar
    26    34    35   ar
    27    35    40    1
    28    40    41   ar
    29    41    42   ar
    30    42    43   ar
    31    43    46    1
    32    46    47    2
    33    46    48    1
    34    48    49    1
    35    43    44   ar
    36    44    45   ar
    37    35    36   ar
    38    36    37   ar
    39    37    38    1
    40    37    39   ar
    41     9    10    1
    42    11    10    1
    43    11    12    1
    44    12    13   am
    45    13    14    2
    46    13    15   am
    47    15    50    1
    48    50    51    1
    49    51    52   ar
    50    52    53   ar
    51    53    54   ar
    52    54    55   ar
    53    55    56   ar
    54    12     1    1
    55    56    51   ar
    56    11     5    1
    57    27    21   ar
    58    39    30   ar
    59    39    34   ar
    60    45    40   ar
    61    25    28    1
    62    15    16    1
@<TRIPOS>MOLECULE
*****
 56 62 0 0 0
SMALL
GASTEIGER

@<TRIPOS>ATOM
      1 N          63.8975   90.0205   12.0713 N.3     1  UNL1       -0.1862
      2 C          63.6293   88.6183   12.5316 C.3     1  UNL1        0.1775
      3 C          62.6257   87.7703   11.8078 C.2     1  UNL1        0.2452
      4 O          62.3575   86.3681   12.2681 O.2     1  UNL1       -0.2732
      5 N          61.8904   88.3246   10.6237 N.am    1  UNL1       -0.2541
      6 C          60.8868   87.4766    9.8999 C.3     1  UNL1        0.1577
      7 C          60.1514   88.0309    8.7159 C.2     1  UNL1        0.2445
      8 O          59.1479   87.1829    7.9921 O.2     1  UNL1       -0.2731
      9 N          60.4196   89.4331    8.2556 N.am    1  UNL1       -0.2705
     10 C          61.4232   90.2811    8.9794 C.3     1  UNL1        0.1359
     11 C          62.1585   89.7268   10.1635 C.3     1  UNL1        0.1908
     12 N          63.1621   90.5747   10.8873 N.am    1  UNL1       -0.1863
     13 C          63.4303   91.9770   10.4270 C.2     1  UNL1        0.3191
     14 O          62.6949   92.5312    9.2429 O.2     1  UNL1       -0.2512
     15 N          64.4338   92.8249   11.1508 N.am    1  UNL1       -0.2836
     16 H          64.9165   92.4611   11.9279 H       1  UNL1        0.1513
     17 C          64.9010   90.8684   12.7951 C.3     1  UNL1        0.1188
     18 C          65.8621   91.7865   15.0274 C.2     1  UNL1       -0.0034
     19 C          64.9884   90.8144   14.2916 C.2     1  UNL1       -0.0071
     20 C          60.6186   86.0744   10.3602 C.3     1  UNL1        0.0556
     21 C          61.7129   85.0493   10.3192 C.ar    1  UNL1       -0.0198
     22 C          61.8387   84.0420   11.4234 C.ar    1  UNL1       -0.0011
     23 C          62.9330   83.0169   11.3823 C.ar    1  UNL1        0.0363
     24 C          63.9015   82.9992   10.2370 C.ar    1  UNL1        0.1337
     25 O          64.9958   81.9741   10.1960 O.3     1  UNL1       -0.5055
     26 C          63.7758   84.0066    9.1328 C.ar    1  UNL1        0.0363
     27 C          62.6815   85.0317    9.1738 C.ar    1  UNL1       -0.0011
     28 H          65.0744   81.3448   10.8858 H       1  UNL1        0.2922
     29 C          59.6843   89.9874    7.0715 C.3     1  UNL1        0.1217
     30 C          60.4488   90.5424    5.9064 C.ar    1  UNL1        0.0135
     31 C          61.9378   90.3744    5.8378 C.ar    1  UNL1       -0.0012
     32 C          62.7023   90.9295    4.6728 C.ar    1  UNL1       -0.0002
     33 C          61.9778   91.6525    3.5763 C.ar    1  UNL1        0.0015
     34 C          60.4888   91.8205    3.6448 C.ar    1  UNL1        0.0170
     35 C          59.5097   92.4813    2.7204 C.ar    1  UNL1        0.0186
     36 C          58.1401   92.3346    3.3141 C.ar    1  UNL1        0.0759
     37 N          58.2727   91.5832    4.6055 N.ar    1  UNL1       -0.3242
     38 C          57.1507   91.2143    5.5301 C.3     1  UNL1        0.1305
     39 C          59.7243   91.2655    4.8099 C.ar    1  UNL1        0.0575
     40 C          59.8419   93.1681    1.4288 C.ar    1  UNL1        0.0015
     41 C          60.0445   94.6541    1.4001 C.ar    1  UNL1        0.0003
     42 C          60.3767   95.3409    0.1087 C.ar    1  UNL1        0.0064
     43 C          60.5064   94.5418   -1.1541 C.ar    1  UNL1        0.0756
     44 C          60.3038   93.0558   -1.1254 C.ar    1  UNL1        0.0064
     45 C          59.9716   92.3690    0.1661 C.ar    1  UNL1        0.0003
     46 C          60.8386   95.2286   -2.4455 C.2     1  UNL1        0.3413
     47 O          59.8275   96.1213   -3.1019 O.2     1  UNL1       -0.2449
     48 O          62.1818   95.0228   -3.0806 O.3     1  UNL1       -0.4413
     49 C          63.4156   94.9797   -2.2286 C.3     1  UNL1        0.2560
     50 C          64.7020   94.2271   10.6905 C.3     1  UNL1        0.1177
     51 C          65.9203   94.5265    9.8683 C.ar    1  UNL1       -0.0025
     52 C          66.0880   95.8786    9.2408 C.ar    1  UNL1       -0.0026
     53 C          67.3063   96.1780    8.4186 C.ar    1  UNL1       -0.0003
     54 C          68.3570   95.1253    8.2238 C.ar    1  UNL1       -0.0000
     55 C          68.1893   93.7732    8.8513 C.ar    1  UNL1       -0.0003
     56 C          66.9710   93.4738    9.6735 C.ar    1  UNL1       -0.0026
@<TRIPOS>BOND
     1    18    19    2
     2    19    17    1
     3    17     1    1
     4     1     2    1
     5     2     3    1
     6     3     4    2
     7     3     5   am
     8     5     6    1
     9     6    20    1
    10    20    21    1
    11    21    22   ar
    12    22    23   ar
    13    23    24   ar
    14    24    25    1
    15    24    26   ar
    16    26    27   ar
    17     6     7    1
    18     7     8    2
    19     7     9   am
    20     9    29    1
    21    29    30    1
    22    30    31   ar
    23    31    32   ar
    24    32    33   ar
    25    33    34   ar
    26    34    35   ar
    27    35    40    1
    28    40    41   ar
    29    41    42   ar
    30    42    43   ar
    31    43    46    1
    32    46    47    2
    33    46    48    1
    34    48    49    1
    35    43    44   ar
    36    44    45   ar
    37    35    36   ar
    38    36    37   ar
    39    37    38    1
    40    37    39   ar
    41     9    10    1
    42    11    10    1
    43    11    12    1
    44    12    13   am
    45    13    14    2
    46    13    15   am
    47    15    50    1
    48    50    51    1
    49    51    52   ar
    50    52    53   ar
    51    53    54   ar
    52    54    55   ar
    53    55    56   ar
    54    12     1    1
    55    56    51   ar
    56    11     5    1
    57    27    21   ar
    58    39    30   ar
    59    39    34   ar
    60    45    40   ar
    61    25    28    1
    62    15    16    1
@<TRIPOS>MOLECULE
*****
 56 62 0 0 0
SMALL
GASTEIGER

@<TRIPOS>ATOM
      1 N          63.5444   91.0959   10.5501 N.3     1  UNL1       -0.1862
      2 C          64.4161   92.3117   10.6594 C.3     1  UNL1        0.1775
      3 C          64.9728   92.7180   11.9917 C.2     1  UNL1        0.2452
      4 O          65.8446   93.9339   12.1010 O.2     1  UNL1       -0.2732
      5 N          64.6579   91.9085   13.2146 N.am    1  UNL1       -0.2541
      6 C          65.2147   92.3148   14.5469 C.3     1  UNL1        0.1577
      7 C          64.8998   91.5054   15.7698 C.2     1  UNL1        0.2445
      8 O          65.4566   91.9117   17.1020 O.2     1  UNL1       -0.2731
      9 N          64.0281   90.2895   15.6604 N.am    1  UNL1       -0.2705
     10 C          63.4713   89.8832   14.3282 C.3     1  UNL1        0.1359
     11 C          63.7863   90.6927   13.1052 C.3     1  UNL1        0.1908
     12 N          63.2295   90.2864   11.7730 N.am    1  UNL1       -0.1863
     13 C          62.3578   89.0706   11.6637 C.2     1  UNL1        0.3191
     14 O          62.0429   88.2611   12.8866 O.2     1  UNL1       -0.2512
     15 N          61.8010   88.6643   10.3314 N.am    1  UNL1       -0.2836
     16 H          62.0077   89.1956    9.5288 H       1  UNL1        0.1513
     17 C          62.9876   90.6896    9.2178 C.3     1  UNL1        0.1188
     18 C          60.8542   89.9505    7.9324 C.2     1  UNL1       -0.0034
     19 C          61.5210   90.8384    8.9410 C.2     1  UNL1       -0.0071
     20 C          66.0864   93.5306   14.6562 C.3     1  UNL1        0.0556
     21 C          67.4119   93.4430   15.3529 C.ar    1  UNL1       -0.0198
     22 C          68.1674   94.6947   15.6878 C.ar    1  UNL1       -0.0011
     23 C          69.4929   94.6071   16.3845 C.ar    1  UNL1        0.0363
     24 C          70.0629   93.2676   16.7463 C.ar    1  UNL1        0.1337
     25 O          71.3884   93.1800   17.4430 O.3     1  UNL1       -0.5055
     26 C          69.3074   92.0157   16.4114 C.ar    1  UNL1        0.0363
     27 C          67.9819   92.1034   15.7147 C.ar    1  UNL1       -0.0011
     28 H          71.8603   93.9619   17.6522 H       1  UNL1        0.2922
     29 C          63.7132   89.4800   16.8833 C.3     1  UNL1        0.1217
     30 C          63.1085   88.1144   16.7436 C.ar    1  UNL1        0.0135
     31 C          61.9728   87.7025   17.6328 C.ar    1  UNL1       -0.0012
     32 C          61.3680   86.3370   17.4931 C.ar    1  UNL1       -0.0002
     33 C          61.8990   85.3833   16.4643 C.ar    1  UNL1        0.0015
     34 C          63.0348   85.7951   15.5752 C.ar    1  UNL1        0.0170
     35 C          63.7631   85.0756   14.4789 C.ar    1  UNL1        0.0186
     36 C          64.8179   85.9965   13.9411 C.ar    1  UNL1        0.0759
     37 N          64.7415   87.2851   14.7049 N.ar    1  UNL1       -0.3242
     38 C          65.6140   88.4871   14.4956 C.3     1  UNL1        0.1305
     39 C          63.6395   87.1607   15.7148 C.ar    1  UNL1        0.0575
     40 C          63.4853   83.6801   14.0039 C.ar    1  UNL1        0.0015
     41 C          62.3923   82.8745   14.6414 C.ar    1  UNL1        0.0003
     42 C          62.1146   81.4791   14.1663 C.ar    1  UNL1        0.0064
     43 C          62.9298   80.8893   13.0538 C.ar    1  UNL1        0.0756
     44 C          64.0227   81.6950   12.4163 C.ar    1  UNL1        0.0064
     45 C          64.3004   83.0904   12.8913 C.ar    1  UNL1        0.0003
     46 C          62.6520   79.4939   12.5788 C.2     1  UNL1        0.3413
     47 O          62.3470   78.4108   13.5707 O.2     1  UNL1       -0.2449
     48 O          62.6791   79.1815   11.1119 O.3     1  UNL1       -0.4413
     49 C          62.6732   77.7549   10.6487 C.3     1  UNL1        0.2560
     50 C          60.9293   87.4485   10.2220 C.3     1  UNL1        0.1177
     51 C          61.1102   86.4965    9.0770 C.ar    1  UNL1       -0.0025
     52 C          59.9738   86.2330    8.1341 C.ar    1  UNL1       -0.0026
     53 C          60.1546   85.2810    6.9891 C.ar    1  UNL1       -0.0003
     54 C          61.4718   84.5926    6.7870 C.ar    1  UNL1       -0.0000
     55 C          62.6083   84.8561    7.7299 C.ar    1  UNL1       -0.0003
     56 C          62.4275   85.8081    8.8749 C.ar    1  UNL1       -0.0026
@<TRIPOS>BOND
     1    18    19    2
     2    19    17    1
     3    17     1    1
     4     1     2    1
     5     2     3    1
     6     3     4    2
     7     3     5   am
     8     5     6    1
     9     6    20    1
    10    20    21    1
    11    21    22   ar
    12    22    23   ar
    13    23    24   ar
    14    24    25    1
    15    24    26   ar
    16    26    27   ar
    17     6     7    1
    18     7     8    2
    19     7     9   am
    20     9    29    1
    21    29    30    1
    22    30    31   ar
    23    31    32   ar
    24    32    33   ar
    25    33    34   ar
    26    34    35   ar
    27    35    40    1
    28    40    41   ar
    29    41    42   ar
    30    42    43   ar
    31    43    46    1
    32    46    47    2
    33    46    48    1
    34    48    49    1
    35    43    44   ar
    36    44    45   ar
    37    35    36   ar
    38    36    37   ar
    39    37    38    1
    40    37    39   ar
    41     9    10    1
    42    11    10    1
    43    11    12    1
    44    12    13   am
    45    13    14    2
    46    13    15   am
    47    15    50    1
    48    50    51    1
    49    51    52   ar
    50    52    53   ar
    51    53    54   ar
    52    54    55   ar
    53    55    56   ar
    54    12     1    1
    55    56    51   ar
    56    11     5    1
    57    27    21   ar
    58    39    30   ar
    59    39    34   ar
    60    45    40   ar
    61    25    28    1
    62    15    16    1
@<TRIPOS>MOLECULE
*****
 56 62 0 0 0
SMALL
GASTEIGER

@<TRIPOS>ATOM
      1 N          62.0153   89.9543   10.0624 N.3     1  UNL1       -0.1862
      2 C          62.4788   91.2941   10.5523 C.3     1  UNL1        0.1775
      3 C          63.1444   91.4140   11.8912 C.2     1  UNL1        0.2452
      4 O          63.6079   92.7539   12.3810 O.2     1  UNL1       -0.2732
      5 N          63.3465   90.1941   12.7402 N.am    1  UNL1       -0.2541
      6 C          64.0121   90.3140   14.0791 C.3     1  UNL1        0.1577
      7 C          64.2141   89.0940   14.9281 C.2     1  UNL1        0.2445
      8 O          64.8797   89.2139   16.2670 O.2     1  UNL1       -0.2731
      9 N          63.7506   87.7541   14.4383 N.am    1  UNL1       -0.2705
     10 C          63.0850   87.6343   13.0994 C.3     1  UNL1        0.1359
     11 C          62.8829   88.8543   12.2504 C.3     1  UNL1        0.1908
     12 N          62.2173   88.7344   10.9115 N.am    1  UNL1       -0.1863
     13 C          61.7538   87.3945   10.4216 C.2     1  UNL1        0.3191
     14 O          61.9559   86.1746   11.2707 O.2     1  UNL1       -0.2512
     15 N          61.0882   87.2746    9.0827 N.am    1  UNL1       -0.2836
     16 H          60.9556   88.0753    8.5255 H       1  UNL1        0.1513
     17 C          61.3497   89.8345    8.7236 C.3     1  UNL1        0.1188
     18 C          59.2131   89.3025    7.3444 C.2     1  UNL1       -0.0034
     19 C          59.8574   89.7097    8.6363 C.2     1  UNL1       -0.0071
     20 C          64.4756   91.6538   14.5690 C.3     1  UNL1        0.0556
     21 C          65.9397   91.9795   14.5894 C.ar    1  UNL1       -0.0198
     22 C          66.5484   92.6213   15.8007 C.ar    1  UNL1       -0.0011
     23 C          68.0125   92.9470   15.8211 C.ar    1  UNL1        0.0363
     24 C          68.8678   92.6309   14.6302 C.ar    1  UNL1        0.1337
     25 O          70.3319   92.9565   14.6506 O.3     1  UNL1       -0.5055
     26 C          68.2591   91.9890   13.4187 C.ar    1  UNL1        0.0363
     27 C          66.7950   91.6633   13.3983 C.ar    1  UNL1       -0.0011
     28 H          70.7121   93.3575   15.4073 H       1  UNL1        0.2922
     29 C          63.9527   86.5342   15.2873 C.3     1  UNL1        0.1217
     30 C          64.4778   85.2709   14.6722 C.ar    1  UNL1        0.0135
     31 C          65.9497   84.9824   14.6921 C.ar    1  UNL1       -0.0012
     32 C          66.4748   83.7192   14.0770 C.ar    1  UNL1       -0.0002
     33 C          65.5280   82.7443   13.4420 C.ar    1  UNL1        0.0015
     34 C          64.0561   83.0328   13.4221 C.ar    1  UNL1        0.0170
     35 C          62.8903   82.2655   12.8724 C.ar    1  UNL1        0.0186
     36 C          61.6447   83.0545   13.1478 C.ar    1  UNL1        0.0759
     37 N          62.0407   84.3094   13.8676 N.ar    1  UNL1       -0.3242
     38 C          61.1098   85.3884   14.3358 C.3     1  UNL1        0.1305
     39 C          63.5310   84.2960   14.0372 C.ar    1  UNL1        0.0575
     40 C          62.9582   80.9415   12.1705 C.ar    1  UNL1        0.0015
     41 C          63.2688   80.8850   10.7041 C.ar    1  UNL1        0.0003
     42 C          63.3367   79.5611   10.0023 C.ar    1  UNL1        0.0064
     43 C          63.0940   78.2936   10.7669 C.ar    1  UNL1        0.0756
     44 C          62.7835   78.3500   12.2333 C.ar    1  UNL1        0.0064
     45 C          62.7156   79.6740   12.9351 C.ar    1  UNL1        0.0003
     46 C          63.1619   76.9697   10.0650 C.2     1  UNL1        0.3413
     47 O          62.2861   75.8374   10.5132 O.2     1  UNL1       -0.2449
     48 O          64.1057   76.7780    8.9149 O.3     1  UNL1       -0.4413
     49 C          65.2788   75.8536    9.0534 C.3     1  UNL1        0.2560
     50 C          60.6247   85.9348    8.5929 C.3     1  UNL1        0.1177
     51 C          61.3176   85.2785    7.4356 C.ar    1  UNL1       -0.0025
     52 C          60.5136   84.7169    6.3007 C.ar    1  UNL1       -0.0026
     53 C          61.2065   84.0607    5.1434 C.ar    1  UNL1       -0.0003
     54 C          62.7033   83.9660    5.1211 C.ar    1  UNL1       -0.0000
     55 C          63.5073   84.5276    6.2562 C.ar    1  UNL1       -0.0003
     56 C          62.8145   85.1839    7.4134 C.ar    1  UNL1       -0.0026
@<TRIPOS>BOND
     1    18    19    2
     2    19    17    1
     3    17     1    1
     4     1     2    1
     5     2     3    1
     6     3     4    2
     7     3     5   am
     8     5     6    1
     9     6    20    1
    10    20    21    1
    11    21    22   ar
    12    22    23   ar
    13    23    24   ar
    14    24    25    1
    15    24    26   ar
    16    26    27   ar
    17     6     7    1
    18     7     8    2
    19     7     9   am
    20     9    29    1
    21    29    30    1
    22    30    31   ar
    23    31    32   ar
    24    32    33   ar
    25    33    34   ar
    26    34    35   ar
    27    35    40    1
    28    40    41   ar
    29    41    42   ar
    30    42    43   ar
    31    43    46    1
    32    46    47    2
    33    46    48    1
    34    48    49    1
    35    43    44   ar
    36    44    45   ar
    37    35    36   ar
    38    36    37   ar
    39    37    38    1
    40    37    39   ar
    41     9    10    1
    42    11    10    1
    43    11    12    1
    44    12    13   am
    45    13    14    2
    46    13    15   am
    47    15    50    1
    48    50    51    1
    49    51    52   ar
    50    52    53   ar
    51    53    54   ar
    52    54    55   ar
    53    55    56   ar
    54    12     1    1
    55    56    51   ar
    56    11     5    1
    57    27    21   ar
    58    39    30   ar
    59    39    34   ar
    60    45    40   ar
    61    25    28    1
    62    15    16    1
@<TRIPOS>MOLECULE
*****
 56 62 0 0 0
SMALL
GASTEIGER

@<TRIPOS>ATOM
      1 N          66.1203   92.2341   10.8966 N.3     1  UNL1       -0.1862
      2 C          64.8988   92.2376   10.0261 C.3     1  UNL1        0.1775
      3 C          63.6100   91.6675   10.5399 C.2     1  UNL1        0.2452
      4 O          62.3885   91.6710    9.6693 O.2     1  UNL1       -0.2732
      5 N          63.5427   91.0939   11.9242 N.am    1  UNL1       -0.2541
      6 C          62.2540   90.5238   12.4380 C.3     1  UNL1        0.1577
      7 C          62.1867   89.9501   13.8223 C.2     1  UNL1        0.2445
      8 O          60.8979   89.3800   14.3361 O.2     1  UNL1       -0.2731
      9 N          63.4082   89.9466   14.6929 N.am    1  UNL1       -0.2705
     10 C          64.6970   90.5167   14.1791 C.3     1  UNL1        0.1359
     11 C          64.7643   91.0904   12.7947 C.3     1  UNL1        0.1908
     12 N          66.0530   91.6605   12.2809 N.am    1  UNL1       -0.1863
     13 C          67.2746   91.6570   13.1515 C.2     1  UNL1        0.3191
     14 O          67.2073   91.0833   14.5359 O.2     1  UNL1       -0.2512
     15 N          68.5634   92.2271   12.6377 N.am    1  UNL1       -0.2836
     16 H          68.6075   92.6036   11.7292 H       1  UNL1        0.1513
     17 C          67.4091   92.8043   10.3828 C.3     1  UNL1        0.1188
     18 C          66.9975   95.3481   10.0519 C.2     1  UNL1       -0.0034
     19 C          67.3933   94.0129    9.4946 C.2     1  UNL1       -0.0071
     20 C          61.0324   90.5273   11.5675 C.3     1  UNL1        0.0556
     21 C          60.7404   89.3536   10.6803 C.ar    1  UNL1       -0.0198
     22 C          60.0805   89.5649    9.3499 C.ar    1  UNL1       -0.0011
     23 C          59.7884   88.3913    8.4627 C.ar    1  UNL1        0.0363
     24 C          60.1563   87.0063    8.9058 C.ar    1  UNL1        0.1337
     25 O          59.8642   85.8326    8.0185 O.3     1  UNL1       -0.5055
     26 C          60.8162   86.7949   10.2362 C.ar    1  UNL1        0.0363
     27 C          61.1083   87.9685   11.1234 C.ar    1  UNL1       -0.0011
     28 H          59.4519   85.9646    7.1875 H       1  UNL1        0.2922
     29 C          63.3410   89.3730   16.0772 C.3     1  UNL1        0.1217
     30 C          63.0446   87.9154   16.2715 C.ar    1  UNL1        0.0135
     31 C          62.5448   87.4218   17.5969 C.ar    1  UNL1       -0.0012
     32 C          62.2485   85.9643   17.7912 C.ar    1  UNL1       -0.0002
     33 C          62.4519   85.0004   16.6602 C.ar    1  UNL1        0.0015
     34 C          62.9518   85.4939   15.3348 C.ar    1  UNL1        0.0170
     35 C          63.2464   84.7852   14.0461 C.ar    1  UNL1        0.0186
     36 C          63.7248   85.8047   13.0553 C.ar    1  UNL1        0.0759
     37 N          63.7258   87.1434   13.7317 N.ar    1  UNL1       -0.3242
     38 C          64.1331   88.4457   13.1086 C.3     1  UNL1        0.1305
     39 C          63.2481   86.9514   15.1405 C.ar    1  UNL1        0.0575
     40 C          63.0900   83.3149   13.7926 C.ar    1  UNL1        0.0015
     41 C          64.1319   82.5742   13.0079 C.ar    1  UNL1        0.0003
     42 C          63.9754   81.1041   12.7545 C.ar    1  UNL1        0.0064
     43 C          62.7772   80.3747   13.2858 C.ar    1  UNL1        0.0756
     44 C          61.7353   81.1155   14.0705 C.ar    1  UNL1        0.0064
     45 C          61.8918   82.5856   14.3239 C.ar    1  UNL1        0.0003
     46 C          62.6209   78.9046   13.0324 C.2     1  UNL1        0.3413
     47 O          62.4436   77.9597   14.1838 O.2     1  UNL1       -0.2449
     48 O          62.6418   78.3792   11.6275 O.3     1  UNL1       -0.4413
     49 C          62.7187   79.3319   10.4716 C.3     1  UNL1        0.2560
     50 C          69.7849   92.2236   13.5083 C.3     1  UNL1        0.1177
     51 C          69.9279   93.2379   14.6041 C.ar    1  UNL1       -0.0025
     52 C          68.8691   93.3553   15.6601 C.ar    1  UNL1       -0.0026
     53 C          69.0121   94.3696   16.7559 C.ar    1  UNL1       -0.0003
     54 C          70.2138   95.2664   16.7957 C.ar    1  UNL1       -0.0000
     55 C          71.2726   95.1490   15.7396 C.ar    1  UNL1       -0.0003
     56 C          71.1297   94.1347   14.6438 C.ar    1  UNL1       -0.0026
@<TRIPOS>BOND
     1    18    19    2
     2    19    17    1
     3    17     1    1
     4     1     2    1
     5     2     3    1
     6     3     4    2
     7     3     5   am
     8     5     6    1
     9     6    20    1
    10    20    21    1
    11    21    22   ar
    12    22    23   ar
    13    23    24   ar
    14    24    25    1
    15    24    26   ar
    16    26    27   ar
    17     6     7    1
    18     7     8    2
    19     7     9   am
    20     9    29    1
    21    29    30    1
    22    30    31   ar
    23    31    32   ar
    24    32    33   ar
    25    33    34   ar
    26    34    35   ar
    27    35    40    1
    28    40    41   ar
    29    41    42   ar
    30    42    43   ar
    31    43    46    1
    32    46    47    2
    33    46    48    1
    34    48    49    1
    35    43    44   ar
    36    44    45   ar
    37    35    36   ar
    38    36    37   ar
    39    37    38    1
    40    37    39   ar
    41     9    10    1
    42    11    10    1
    43    11    12    1
    44    12    13   am
    45    13    14    2
    46    13    15   am
    47    15    50    1
    48    50    51    1
    49    51    52   ar
    50    52    53   ar
    51    53    54   ar
    52    54    55   ar
    53    55    56   ar
    54    12     1    1
    55    56    51   ar
    56    11     5    1
    57    27    21   ar
    58    39    30   ar
    59    39    34   ar
    60    45    40   ar
    61    25    28    1
    62    15    16    1
