@<TRIPOS>MOLECULE
*****
 40 45 0 0 0
SMALL
GASTEIGER

@<TRIPOS>ATOM
      1 C          62.7688   85.0809   12.9344 C.ar    1  UNL1        0.1637
      2 N          62.0055   85.7900   11.8553 N.ar    1  UNL1       -0.2114
      3 C          62.1426   87.2748   11.6916 C.ar    1  UNL1        0.1409
      4 C          63.0429   88.0503   12.6069 C.ar    1  UNL1        0.0785
      5 S          63.3767   89.5106   12.6862 S.2     1  UNL1       -0.0856
      6 C          64.3463   89.7038   13.8142 C.ar    1  UNL1        0.0251
      7 C          64.6118   88.3630   14.4322 C.ar    1  UNL1        0.0233
      8 C          63.8063   87.3411   13.6860 C.ar    1  UNL1        0.0918
      9 N          63.6692   85.8564   13.8497 N.ar    1  UNL1       -0.2259
     10 C          63.0686   79.0861   10.4944 C.3     1  UNL1        0.1305
     11 N          63.0804   80.5580   10.7828 N.ar    1  UNL1       -0.3240
     12 C          63.4166   81.6453    9.8056 C.ar    1  UNL1        0.0760
     13 C          63.3022   82.9603   10.5179 C.ar    1  UNL1        0.0202
     14 C          62.8953   82.6858   11.9353 C.ar    1  UNL1        0.0202
     15 C          62.6318   83.5961   13.0981 C.ar    1  UNL1        0.0373
     16 C          62.2314   83.0216   14.4246 C.ar    1  UNL1        0.0031
     17 C          62.0943   81.5369   14.5883 C.ar    1  UNL1        0.0016
     18 C          62.3578   80.6267   13.4255 C.ar    1  UNL1        0.0172
     19 C          62.7582   81.2011   12.0990 C.ar    1  UNL1        0.0601
     20 N          61.3792   87.9840   10.6125 N.pl3   1  UNL1       -0.2876
     21 C          61.0563   87.2736    9.3315 C.3     1  UNL1        0.1243
     22 C          60.2930   87.9827    8.2525 C.3     1  UNL1        0.1636
     23 O          59.8526   89.4024    8.4544 O.3     1  UNL1       -0.3501
     24 C          60.1755   90.1128    9.7355 C.3     1  UNL1        0.1636
     25 C          60.9388   89.4035   10.8145 C.3     1  UNL1        0.1243
     26 C          64.9453   91.0088   14.2482 C.3     1  UNL1        0.1058
     27 N          65.2700   92.0607   13.2294 N.3     1  UNL1       -0.2661
     28 C          64.7036   91.9630   11.8438 C.3     1  UNL1        0.0899
     29 C          65.0283   93.0149   10.8249 C.3     1  UNL1        0.0900
     30 N          65.9193   94.1645   11.1916 N.3     1  UNL1       -0.2655
     31 C          66.4857   94.2622   12.5771 C.3     1  UNL1        0.0900
     32 C          66.1610   93.2103   13.5960 C.3     1  UNL1        0.0899
     33 C          66.2440   95.2164   10.1727 C.3     1  UNL1        0.1145
     34 C          66.9548   94.1908    9.3404 C.3     1  UNL1        0.0253
     35 C          65.5332   96.2420   11.0051 C.3     1  UNL1        0.0253
     36 C          66.5686   96.2683    9.1538 C.2     1  UNL1        0.2321
     37 N          67.9839   96.7344    8.9819 N.am    1  UNL1       -0.3278
     38 O          65.4779   96.8540    8.3068 O.2     1  UNL1       -0.2740
     39 H          68.6998   96.3500    9.5378 H       1  UNL1        0.1450
     40 H          68.1970   97.4248    8.3132 H       1  UNL1        0.1450
@<TRIPOS>BOND
     1    10    11    1
     2    11    12   ar
     3    12    13   ar
     4    13    14   ar
     5    14    15   ar
     6    15     1    1
     7     1     2   ar
     8     2     3   ar
     9     3    20    1
    10    20    21    1
    11    21    22    1
    12    22    23    1
    13    23    24    1
    14    24    25    1
    15     3     4   ar
    16     4     5   ar
    17     5     6   ar
    18     6    26    1
    19    26    27    1
    20    27    28    1
    21    28    29    1
    22    29    30    1
    23    30    33    1
    24    33    34    1
    25    33    35    1
    26    33    36    1
    27    36    37   am
    28    36    38    2
    29    30    31    1
    30    31    32    1
    31     6     7   ar
    32     7     8   ar
    33     8     9   ar
    34    15    16   ar
    35    16    17   ar
    36    17    18   ar
    37    18    19   ar
    38    19    11   ar
    39    19    14   ar
    40     9     1   ar
    41    25    20    1
    42     8     4   ar
    43    32    27    1
    44    37    39    1
    45    37    40    1
@<TRIPOS>MOLECULE
*****
 40 45 0 0 0
SMALL
GASTEIGER

@<TRIPOS>ATOM
      1 C          62.3312   85.7006   10.2975 C.ar    1  UNL1        0.1637
      2 N          62.8365   86.9437   10.9677 N.ar    1  UNL1       -0.2114
      3 C          62.3104   88.2860   10.5532 C.ar    1  UNL1        0.1409
      4 C          61.2791   88.3849    9.4685 C.ar    1  UNL1        0.0785
      5 S          60.5801   89.5604    8.8524 S.2     1  UNL1       -0.0856
      6 C          59.6429   89.0437    7.8014 C.ar    1  UNL1        0.0251
      7 C          59.7627   87.5489    7.7679 C.ar    1  UNL1        0.0233
      8 C          60.7739   87.1417    8.7983 C.ar    1  UNL1        0.0918
      9 N          61.3000   85.7995    9.2128 N.ar    1  UNL1       -0.2259
     10 C          63.4040   81.2267   14.8599 C.3     1  UNL1        0.1305
     11 N          63.0352   82.4200   14.0291 N.ar    1  UNL1       -0.3240
     12 C          62.3594   83.6642   14.5242 C.ar    1  UNL1        0.0760
     13 C          62.1841   84.5917   13.3584 C.ar    1  UNL1        0.0202
     14 C          62.7516   83.9206   12.1428 C.ar    1  UNL1        0.0202
     15 C          62.8573   84.3583   10.7120 C.ar    1  UNL1        0.0373
     16 C          63.4890   83.4539    9.6957 C.ar    1  UNL1        0.0031
     17 C          64.0150   82.1117   10.1102 C.ar    1  UNL1        0.0016
     18 C          63.9093   81.6740   11.5410 C.ar    1  UNL1        0.0172
     19 C          63.2776   82.5784   12.5573 C.ar    1  UNL1        0.0601
     20 N          62.8156   89.5291   11.2235 N.pl3   1  UNL1       -0.2876
     21 C          63.3191   90.6751   10.3969 C.3     1  UNL1        0.1243
     22 C          63.8243   91.9183   11.0671 C.3     1  UNL1        0.1636
     23 O          63.8261   92.0155   12.5640 O.3     1  UNL1       -0.3501
     24 C          63.3226   90.8695   13.3906 C.3     1  UNL1        0.1636
     25 C          62.8174   89.6263   12.7203 C.3     1  UNL1        0.1243
     26 C          58.7437   89.8758    6.9358 C.3     1  UNL1        0.1058
     27 N          59.3147   90.6423    5.7797 N.3     1  UNL1       -0.2661
     28 C          58.4351   91.5540    4.9765 C.3     1  UNL1        0.0899
     29 C          59.0061   92.3204    3.8204 C.3     1  UNL1        0.0900
     30 N          60.4568   92.1752    3.4676 N.3     1  UNL1       -0.2655
     31 C          61.3364   91.2635    4.2708 C.3     1  UNL1        0.0900
     32 C          60.7654   90.4970    5.4268 C.3     1  UNL1        0.0899
     33 C          61.0278   92.9416    2.3115 C.3     1  UNL1        0.1145
     34 C          59.6566   93.4417    1.9657 C.3     1  UNL1        0.0253
     35 C          62.3991   92.4415    2.6573 C.3     1  UNL1        0.0253
     36 C          61.5989   93.7081    1.1555 C.2     1  UNL1        0.2321
     37 N          61.4367   93.1885   -0.2423 N.am    1  UNL1       -0.3278
     38 O          62.3321   94.9942    1.3972 O.2     1  UNL1       -0.2740
     39 H          60.9555   92.3444   -0.4009 H       1  UNL1        0.1450
     40 H          61.8115   93.6915   -1.0010 H       1  UNL1        0.1450
@<TRIPOS>BOND
     1    10    11    1
     2    11    12   ar
     3    12    13   ar
     4    13    14   ar
     5    14    15   ar
     6    15     1    1
     7     1     2   ar
     8     2     3   ar
     9     3    20    1
    10    20    21    1
    11    21    22    1
    12    22    23    1
    13    23    24    1
    14    24    25    1
    15     3     4   ar
    16     4     5   ar
    17     5     6   ar
    18     6    26    1
    19    26    27    1
    20    27    28    1
    21    28    29    1
    22    29    30    1
    23    30    33    1
    24    33    34    1
    25    33    35    1
    26    33    36    1
    27    36    37   am
    28    36    38    2
    29    30    31    1
    30    31    32    1
    31     6     7   ar
    32     7     8   ar
    33     8     9   ar
    34    15    16   ar
    35    16    17   ar
    36    17    18   ar
    37    18    19   ar
    38    19    11   ar
    39    19    14   ar
    40     9     1   ar
    41    25    20    1
    42     8     4   ar
    43    32    27    1
    44    37    39    1
    45    37    40    1
@<TRIPOS>MOLECULE
*****
 40 45 0 0 0
SMALL
GASTEIGER

@<TRIPOS>ATOM
      1 C          62.8541   89.6531   12.5139 C.ar    1  UNL1        0.1637
      2 N          63.0664   88.1872   12.2770 N.ar    1  UNL1       -0.2114
      3 C          62.4050   87.5122   11.1120 C.ar    1  UNL1        0.1409
      4 C          61.5315   88.3032   10.1840 C.ar    1  UNL1        0.0785
      5 S          60.7543   87.9139    8.9615 S.2     1  UNL1       -0.0856
      6 C          60.0617   89.1392    8.4429 C.ar    1  UNL1        0.0251
      7 C          60.4109   90.2858    9.3448 C.ar    1  UNL1        0.0233
      8 C          61.3193   89.7691   10.4209 C.ar    1  UNL1        0.0918
      9 N          61.9806   90.4440   11.5859 N.ar    1  UNL1       -0.2259
     10 C          67.2669   93.7578   14.8929 C.3     1  UNL1        0.1305
     11 N          66.3580   92.8882   14.0758 N.ar    1  UNL1       -0.3240
     12 C          66.3555   92.7753   12.5800 C.ar    1  UNL1        0.0760
     13 C          65.2880   91.7961   12.1909 C.ar    1  UNL1        0.0202
     14 C          64.6307   91.3038   13.4462 C.ar    1  UNL1        0.0202
     15 C          63.5154   90.3280   13.6789 C.ar    1  UNL1        0.0373
     16 C          63.0615   90.0273   15.0766 C.ar    1  UNL1        0.0031
     17 C          63.7228   90.7022   16.2415 C.ar    1  UNL1        0.0016
     18 C          64.8380   91.6780   16.0087 C.ar    1  UNL1        0.0172
     19 C          65.2920   91.9787   14.6111 C.ar    1  UNL1        0.0601
     20 N          62.6173   86.0464   10.8752 N.pl3   1  UNL1       -0.2876
     21 C          62.5001   85.0778   12.0145 C.3     1  UNL1        0.1243
     22 C          62.7124   83.6119   11.7776 C.3     1  UNL1        0.1636
     23 O          63.0418   83.1146   10.4013 O.3     1  UNL1       -0.3501
     24 C          63.1590   84.0831    9.2620 C.3     1  UNL1        0.1636
     25 C          62.9467   85.5491    9.4989 C.3     1  UNL1        0.1243
     26 C          59.1756   89.2062    7.2344 C.3     1  UNL1        0.1058
     27 N          59.5342   90.1077    6.0905 N.3     1  UNL1       -0.2661
     28 C          60.9458   90.1524    5.5848 C.3     1  UNL1        0.0899
     29 C          61.3045   91.0538    4.4408 C.3     1  UNL1        0.0900
     30 N          60.2516   91.9106    3.8025 N.3     1  UNL1       -0.2655
     31 C          58.8402   91.8660    4.3081 C.3     1  UNL1        0.0900
     32 C          58.4815   90.9645    5.4521 C.3     1  UNL1        0.0899
     33 C          60.6103   92.8121    2.6585 C.3     1  UNL1        0.1145
     34 C          59.1545   93.0704    2.4056 C.3     1  UNL1        0.0253
     35 C          62.0661   92.5538    2.9114 C.3     1  UNL1        0.0253
     36 C          60.9690   93.7136    1.5145 C.2     1  UNL1        0.2321
     37 N          60.0573   94.8425    1.1349 N.am    1  UNL1       -0.3278
     38 O          62.2395   93.4861    0.7502 O.2     1  UNL1       -0.2740
     39 H          59.2234   94.9919    1.6365 H       1  UNL1        0.1450
     40 H          60.2927   95.4342    0.3840 H       1  UNL1        0.1450
@<TRIPOS>BOND
     1    10    11    1
     2    11    12   ar
     3    12    13   ar
     4    13    14   ar
     5    14    15   ar
     6    15     1    1
     7     1     2   ar
     8     2     3   ar
     9     3    20    1
    10    20    21    1
    11    21    22    1
    12    22    23    1
    13    23    24    1
    14    24    25    1
    15     3     4   ar
    16     4     5   ar
    17     5     6   ar
    18     6    26    1
    19    26    27    1
    20    27    28    1
    21    28    29    1
    22    29    30    1
    23    30    33    1
    24    33    34    1
    25    33    35    1
    26    33    36    1
    27    36    37   am
    28    36    38    2
    29    30    31    1
    30    31    32    1
    31     6     7   ar
    32     7     8   ar
    33     8     9   ar
    34    15    16   ar
    35    16    17   ar
    36    17    18   ar
    37    18    19   ar
    38    19    11   ar
    39    19    14   ar
    40     9     1   ar
    41    25    20    1
    42     8     4   ar
    43    32    27    1
    44    37    39    1
    45    37    40    1
