@<TRIPOS>MOLECULE
*****
 44 47 0 0 0
SMALL
GASTEIGER

@<TRIPOS>ATOM
      1 N          64.2966   91.1021   12.8416 N.pl3   1  UNL1       -0.3025
      2 C          63.4190   91.7794   11.8311 C.3     1  UNL1        0.1124
      3 C          62.5440   90.9606   10.9290 C.3     1  UNL1        0.1149
      4 N          62.5465   89.4645   11.0373 N.am    1  UNL1       -0.2747
      5 C          61.6715   88.6457   10.1352 C.2     1  UNL1        0.2442
      6 O          60.7939   89.3230    9.1247 O.2     1  UNL1       -0.2731
      7 C          63.4241   88.7872   12.0479 C.3     1  UNL1        0.1149
      8 C          64.2991   89.6061   12.9500 C.3     1  UNL1        0.1124
      9 C          66.0264   93.0124   13.1711 C.ar    1  UNL1        0.0075
     10 C          66.9014   93.8312   14.0732 C.ar    1  UNL1       -0.0016
     11 C          66.9216   93.5586   15.5481 C.ar    1  UNL1        0.0021
     12 C          66.0668   92.4671   16.1208 C.ar    1  UNL1        0.0309
     13 C          65.1918   91.6483   15.2187 C.ar    1  UNL1        0.1530
     14 F          64.3370   90.5568   15.7914 F       1  UNL1       -0.2029
     15 C          65.1716   91.9210   13.7438 C.ar    1  UNL1        0.0730
     16 C          66.0062   93.2851   11.6962 C.3     1  UNL1        0.0781
     17 N          65.4071   94.5584   11.1770 N.3     1  UNL1       -0.2950
     18 H          64.4855   94.6463   11.6053 H       1  UNL1        0.1235
     19 C          66.1129   95.8636   11.3968 C.3     1  UNL1        0.0702
     20 C          66.7057   96.6010   10.2328 C.3     1  UNL1        0.0339
     21 C          67.3971   95.8433    9.1383 C.3     1  UNL1        0.0666
     22 N          66.5996   94.9887    8.1983 N.3     1  UNL1       -0.3211
     23 H          66.1892   94.2093    8.7125 H       1  UNL1        0.1189
     24 H          67.2105   94.6283    7.4652 H       1  UNL1        0.1189
     25 C          66.5851   92.2844   10.7405 C.3     1  UNL1        0.0203
     26 C          68.8230   92.3922    9.4250 C.3     1  UNL1        0.0001
     27 C          68.0692   92.0742   10.6823 C.3     1  UNL1        0.0017
     28 C          68.7994   91.5461   11.8814 C.3     1  UNL1        0.0001
     29 C          61.6740   87.1497   10.2436 C.3     1  UNL1        0.1564
     30 N          61.7618   86.3081    9.0050 N.am    1  UNL1       -0.2727
     31 C          62.9915   85.6183    8.4931 C.3     1  UNL1        0.0943
     32 C          62.6250   84.8924    7.2326 C.3     1  UNL1        0.0311
     33 C          61.1688   85.1336    6.9655 C.3     1  UNL1        0.0870
     34 C          60.6353   86.0085    8.0609 C.2     1  UNL1        0.2260
     35 O          59.2233   86.4979    8.1896 O.2     1  UNL1       -0.2749
     36 C          61.5888   86.4951   11.5906 C.3     1  UNL1        0.0564
     37 C          62.3652   85.2415   11.8658 C.ar    1  UNL1       -0.0094
     38 C          62.1376   84.0190   11.0269 C.ar    1  UNL1       -0.0025
     39 C          62.9141   82.7654   11.3020 C.ar    1  UNL1        0.0111
     40 C          63.9180   82.7344   12.4161 C.ar    1  UNL1        0.0585
     41 CL         64.6945   81.4808   12.6913 Cl      1  UNL1       -0.0822
     42 C          64.1455   83.9569   13.2550 C.ar    1  UNL1        0.0225
     43 C          63.3691   85.2104   12.9798 C.ar    1  UNL1        0.0546
     44 CL         63.5966   86.4329   13.8187 Cl      1  UNL1       -0.0825
@<TRIPOS>BOND
     1    26    27    1
     2    27    28    1
     3    27    25    1
     4    16    25    1
     5    16    17    1
     6    17    19    1
     7    19    20    1
     8    20    21    1
     9    21    22    1
    10    16     9    1
    11     9    10   ar
    12    10    11   ar
    13    11    12   ar
    14    12    13   ar
    15    13    14    1
    16    13    15   ar
    17    15     1    1
    18     1     2    1
    19     2     3    1
    20     3     4    1
    21     4     5   am
    22     5     6    2
    23     5    29    1
    24    29    36    1
    25    36    37    1
    26    37    38   ar
    27    38    39   ar
    28    39    40   ar
    29    40    41    1
    30    40    42   ar
    31    42    43   ar
    32    43    44    1
    33    29    30    1
    34    30    31    1
    35    31    32    1
    36    32    33    1
    37    33    34    1
    38    34    35    2
    39     4     7    1
    40     7     8    1
    41    15     9   ar
    42     8     1    1
    43    43    37   ar
    44    34    30   am
    45    17    18    1
    46    22    23    1
    47    22    24    1
@<TRIPOS>MOLECULE
*****
 44 47 0 0 0
SMALL
GASTEIGER

@<TRIPOS>ATOM
      1 N          61.5572   86.3627    9.5259 N.pl3   1  UNL1       -0.3025
      2 C          62.7195   85.7100    8.8382 C.3     1  UNL1        0.1124
      3 C          63.5686   84.7192    9.5779 C.3     1  UNL1        0.1149
      4 N          63.2556   84.3811   11.0054 N.am    1  UNL1       -0.2747
      5 C          64.1048   83.3903   11.7451 C.2     1  UNL1        0.2442
      6 O          65.2671   82.7376   11.0573 O.2     1  UNL1       -0.2731
      7 C          62.0933   85.0338   11.6932 C.3     1  UNL1        0.1149
      8 C          61.2441   86.0247   10.9534 C.3     1  UNL1        0.1124
      9 C          60.6792   88.7889    9.2208 C.ar    1  UNL1        0.0075
     10 C          59.8301   89.7796    8.4810 C.ar    1  UNL1       -0.0016
     11 C          59.0096   89.3350    7.3066 C.ar    1  UNL1        0.0021
     12 C          59.0383   87.8997    6.8720 C.ar    1  UNL1        0.0309
     13 C          59.8875   86.9089    7.6118 C.ar    1  UNL1        0.1530
     14 F          59.9162   85.4735    7.1772 F       1  UNL1       -0.2029
     15 C          60.7079   87.3535    8.7862 C.ar    1  UNL1        0.0730
     16 C          61.4997   89.2335   10.3952 C.3     1  UNL1        0.0781
     17 N          62.8816   89.7764   10.1821 N.3     1  UNL1       -0.2950
     18 H          63.1849   89.4569    9.2621 H       1  UNL1        0.1235
     19 C          63.1212   91.2564   10.2272 C.3     1  UNL1        0.0702
     20 C          64.3365   91.7987   10.9194 C.3     1  UNL1        0.0339
     21 C          64.5045   91.6098   12.3979 C.3     1  UNL1        0.0666
     22 N          63.3186   91.2654   13.2495 N.3     1  UNL1       -0.3211
     23 H          62.6626   92.0465   13.2507 H       1  UNL1        0.1189
     24 H          63.6277   91.0796   14.2036 H       1  UNL1        0.1189
     25 C          60.9382   89.1352   11.7826 C.3     1  UNL1        0.0203
     26 C          59.1763   91.0331   11.5736 C.3     1  UNL1        0.0001
     27 C          59.5711   89.6769   12.0786 C.3     1  UNL1        0.0017
     28 C          58.5989   88.8625   12.8795 C.3     1  UNL1        0.0001
     29 C          63.7917   83.0523   13.1725 C.3     1  UNL1        0.1564
     30 N          62.6737   82.1043   13.4909 N.am    1  UNL1       -0.2727
     31 C          61.6271   82.2984   14.5478 C.3     1  UNL1        0.0943
     32 C          60.7126   81.1097   14.5184 C.3     1  UNL1        0.0311
     33 C          61.1940   80.1810   13.4434 C.3     1  UNL1        0.0870
     34 C          62.4061   80.7956   12.8083 C.2     1  UNL1        0.2260
     35 O          63.2094   80.2053   11.6876 O.2     1  UNL1       -0.2749
     36 C          64.5965   83.6623   14.2817 C.3     1  UNL1        0.0564
     37 C          64.2386   85.0203   14.8089 C.ar    1  UNL1       -0.0094
     38 C          64.7293   86.2510   14.1056 C.ar    1  UNL1       -0.0025
     39 C          64.3714   87.6090   14.6328 C.ar    1  UNL1        0.0111
     40 C          63.5228   87.7361   15.8632 C.ar    1  UNL1        0.0585
     41 CL         63.1649   89.0941   16.3903 Cl      1  UNL1       -0.0822
     42 C          63.0322   86.5054   16.5664 C.ar    1  UNL1        0.0225
     43 C          63.3901   85.1474   16.0392 C.ar    1  UNL1        0.0546
     44 CL         62.8995   83.9167   16.7424 Cl      1  UNL1       -0.0825
@<TRIPOS>BOND
     1    26    27    1
     2    27    28    1
     3    27    25    1
     4    16    25    1
     5    16    17    1
     6    17    19    1
     7    19    20    1
     8    20    21    1
     9    21    22    1
    10    16     9    1
    11     9    10   ar
    12    10    11   ar
    13    11    12   ar
    14    12    13   ar
    15    13    14    1
    16    13    15   ar
    17    15     1    1
    18     1     2    1
    19     2     3    1
    20     3     4    1
    21     4     5   am
    22     5     6    2
    23     5    29    1
    24    29    36    1
    25    36    37    1
    26    37    38   ar
    27    38    39   ar
    28    39    40   ar
    29    40    41    1
    30    40    42   ar
    31    42    43   ar
    32    43    44    1
    33    29    30    1
    34    30    31    1
    35    31    32    1
    36    32    33    1
    37    33    34    1
    38    34    35    2
    39     4     7    1
    40     7     8    1
    41    15     9   ar
    42     8     1    1
    43    43    37   ar
    44    34    30   am
    45    17    18    1
    46    22    23    1
    47    22    24    1
@<TRIPOS>MOLECULE
*****
 44 47 0 0 0
SMALL
GASTEIGER

@<TRIPOS>ATOM
      1 N          61.6231   89.0202   10.4088 N.pl3   1  UNL1       -0.3025
      2 C          61.0918   89.2870   11.7860 C.3     1  UNL1        0.1124
      3 C          61.9322   90.0277   12.7835 C.3     1  UNL1        0.1149
      4 N          63.3038   90.5016   12.4039 N.am    1  UNL1       -0.2747
      5 C          64.1442   91.2423   13.4015 C.2     1  UNL1        0.2442
      6 O          63.6130   91.5091   14.7787 O.2     1  UNL1       -0.2731
      7 C          63.8351   90.2348   11.0267 C.3     1  UNL1        0.1149
      8 C          62.9946   89.4941   10.0292 C.3     1  UNL1        0.1124
      9 C          60.9109   86.7907    9.2808 C.ar    1  UNL1        0.0075
     10 C          60.0705   86.0500    8.2833 C.ar    1  UNL1       -0.0016
     11 C          59.1018   86.7982    7.4162 C.ar    1  UNL1        0.0021
     12 C          58.9735   88.2869    7.5465 C.ar    1  UNL1        0.0309
     13 C          59.8139   89.0276    8.5441 C.ar    1  UNL1        0.1530
     14 F          59.6857   90.5164    8.6745 F       1  UNL1       -0.2029
     15 C          60.7826   88.2795    9.4112 C.ar    1  UNL1        0.0730
     16 C          61.8796   86.0426   10.1480 C.3     1  UNL1        0.0781
     17 N          63.1477   85.4988    9.5596 N.3     1  UNL1       -0.2950
     18 H          63.8921   85.7002   10.2272 H       1  UNL1        0.1235
     19 C          63.2526   84.0413    9.2208 C.3     1  UNL1        0.0702
     20 C          64.2897   83.1886    9.8898 C.3     1  UNL1        0.0339
     21 C          63.9267   82.3739   11.0958 C.3     1  UNL1        0.0666
     22 N          65.0035   81.8516   12.0000 N.3     1  UNL1       -0.3211
     23 H          65.5687   81.1681   11.4961 H       1  UNL1        0.1189
     24 H          64.5784   81.4075   12.8138 H       1  UNL1        0.1189
     25 C          61.5802   85.8382   11.6035 C.3     1  UNL1        0.0203
     26 C          63.5724   86.8728   12.9116 C.3     1  UNL1        0.0001
     27 C          62.7034   85.6939   12.5872 C.3     1  UNL1        0.0017
     28 C          62.9576   84.3708   13.2464 C.3     1  UNL1        0.0001
     29 C          65.5157   91.7162   13.0218 C.3     1  UNL1        0.1564
     30 N          66.4647   92.1926   14.0814 N.am    1  UNL1       -0.2727
     31 C          66.0826   92.7895   15.4034 C.3     1  UNL1        0.0943
     32 C          67.3440   93.1215   16.1440 C.3     1  UNL1        0.0311
     33 C          68.5057   92.7297   15.2798 C.3     1  UNL1        0.0870
     34 C          67.9623   92.1556   14.0050 C.2     1  UNL1        0.2260
     35 O          68.7739   91.6358   12.8557 O.2     1  UNL1       -0.2749
     36 C          65.9385   91.7137   11.5826 C.3     1  UNL1        0.0564
     37 C          66.3279   92.9983   10.9131 C.ar    1  UNL1       -0.0094
     38 C          65.6343   94.2764   11.2816 C.ar    1  UNL1       -0.0025
     39 C          66.0237   95.5610   10.6121 C.ar    1  UNL1        0.0111
     40 C          67.1067   95.5675    9.5742 C.ar    1  UNL1        0.0585
     41 CL         67.4961   96.8521    8.9047 Cl      1  UNL1       -0.0822
     42 C          67.8002   94.2895    9.2058 C.ar    1  UNL1        0.0225
     43 C          67.4108   93.0049    9.8753 C.ar    1  UNL1        0.0546
     44 CL         68.1043   91.7270    9.5069 Cl      1  UNL1       -0.0825
@<TRIPOS>BOND
     1    26    27    1
     2    27    28    1
     3    27    25    1
     4    16    25    1
     5    16    17    1
     6    17    19    1
     7    19    20    1
     8    20    21    1
     9    21    22    1
    10    16     9    1
    11     9    10   ar
    12    10    11   ar
    13    11    12   ar
    14    12    13   ar
    15    13    14    1
    16    13    15   ar
    17    15     1    1
    18     1     2    1
    19     2     3    1
    20     3     4    1
    21     4     5   am
    22     5     6    2
    23     5    29    1
    24    29    36    1
    25    36    37    1
    26    37    38   ar
    27    38    39   ar
    28    39    40   ar
    29    40    41    1
    30    40    42   ar
    31    42    43   ar
    32    43    44    1
    33    29    30    1
    34    30    31    1
    35    31    32    1
    36    32    33    1
    37    33    34    1
    38    34    35    2
    39     4     7    1
    40     7     8    1
    41    15     9   ar
    42     8     1    1
    43    43    37   ar
    44    34    30   am
    45    17    18    1
    46    22    23    1
    47    22    24    1
@<TRIPOS>MOLECULE
*****
 44 47 0 0 0
SMALL
GASTEIGER

@<TRIPOS>ATOM
      1 N          64.3764   90.9908   13.1339 N.pl3   1  UNL1       -0.3025
      2 C          63.5437   91.7054   12.1111 C.3     1  UNL1        0.1124
      3 C          62.6853   90.9220   11.1627 C.3     1  UNL1        0.1149
      4 N          62.6597   89.4240   11.2369 N.am    1  UNL1       -0.2747
      5 C          61.8014   88.6407   10.2884 C.2     1  UNL1        0.2442
      6 O          60.9687   89.3553    9.2657 O.2     1  UNL1       -0.2731
      7 C          63.4925   88.7095   12.2596 C.3     1  UNL1        0.1149
      8 C          64.3508   89.4929   13.2081 C.3     1  UNL1        0.1124
      9 C          66.3116   92.6733   13.5514 C.ar    1  UNL1        0.0075
     10 C          67.1698   93.4567   14.4999 C.ar    1  UNL1       -0.0016
     11 C          66.9512   93.3410   15.9793 C.ar    1  UNL1        0.0021
     12 C          65.8744   92.4419   16.5103 C.ar    1  UNL1        0.0309
     13 C          65.0161   91.6585   15.5618 C.ar    1  UNL1        0.1530
     14 F          63.9392   90.7594   16.0928 F       1  UNL1       -0.2029
     15 C          65.2347   91.7742   14.0824 C.ar    1  UNL1        0.0730
     16 C          66.5301   92.7891   12.0719 C.3     1  UNL1        0.0781
     17 N          67.7270   92.1445   11.4379 N.3     1  UNL1       -0.2950
     18 H          67.7569   91.1825   11.7756 H       1  UNL1        0.1235
     19 C          67.8421   92.0827    9.9436 C.3     1  UNL1        0.0702
     20 C          68.6142   93.1366    9.2066 C.3     1  UNL1        0.0339
     21 C          67.8984   94.0968    8.3034 C.3     1  UNL1        0.0666
     22 N          68.0146   95.5740    8.5362 N.3     1  UNL1       -0.3211
     23 H          67.5737   95.8140    9.4241 H       1  UNL1        0.1189
     24 H          67.5494   96.0751    7.7792 H       1  UNL1        0.1189
     25 C          65.5518   93.5493   11.2264 C.3     1  UNL1        0.0203
     26 C          65.0221   95.7337    9.9234 C.3     1  UNL1        0.0001
     27 C          65.6921   95.0344   11.0689 C.3     1  UNL1        0.0017
     28 C          66.5025   95.8202   12.0567 C.3     1  UNL1        0.0001
     29 C          61.7759   87.1428   10.3627 C.3     1  UNL1        0.1564
     30 N          61.8310   86.3284    9.1042 N.am    1  UNL1       -0.2727
     31 C          63.0423   85.6348    8.5552 C.3     1  UNL1        0.0943
     32 C          62.6444   84.9424    7.2854 C.3     1  UNL1        0.0311
     33 C          61.1871   85.2081    7.0497 C.3     1  UNL1        0.0870
     34 C          60.6843   86.0647    8.1737 C.2     1  UNL1        0.2260
     35 O          59.2813   86.5691    8.3384 O.2     1  UNL1       -0.2749
     36 C          61.6952   86.4592   11.6955 C.3     1  UNL1        0.0564
     37 C          62.4503   85.1848   11.9316 C.ar    1  UNL1       -0.0094
     38 C          62.2194   84.0001   11.0408 C.ar    1  UNL1       -0.0025
     39 C          62.9744   82.7257   11.2770 C.ar    1  UNL1        0.0111
     40 C          63.9604   82.6360   12.4039 C.ar    1  UNL1        0.0585
     41 CL         64.7155   81.3616   12.6400 Cl      1  UNL1       -0.0822
     42 C          64.1913   83.8206   13.2946 C.ar    1  UNL1        0.0225
     43 C          63.4362   85.0950   13.0584 C.ar    1  UNL1        0.0546
     44 CL         63.6671   86.2796   13.9491 Cl      1  UNL1       -0.0825
@<TRIPOS>BOND
     1    26    27    1
     2    27    28    1
     3    27    25    1
     4    16    25    1
     5    16    17    1
     6    17    19    1
     7    19    20    1
     8    20    21    1
     9    21    22    1
    10    16     9    1
    11     9    10   ar
    12    10    11   ar
    13    11    12   ar
    14    12    13   ar
    15    13    14    1
    16    13    15   ar
    17    15     1    1
    18     1     2    1
    19     2     3    1
    20     3     4    1
    21     4     5   am
    22     5     6    2
    23     5    29    1
    24    29    36    1
    25    36    37    1
    26    37    38   ar
    27    38    39   ar
    28    39    40   ar
    29    40    41    1
    30    40    42   ar
    31    42    43   ar
    32    43    44    1
    33    29    30    1
    34    30    31    1
    35    31    32    1
    36    32    33    1
    37    33    34    1
    38    34    35    2
    39     4     7    1
    40     7     8    1
    41    15     9   ar
    42     8     1    1
    43    43    37   ar
    44    34    30   am
    45    17    18    1
    46    22    23    1
    47    22    24    1
@<TRIPOS>MOLECULE
*****
 44 47 0 0 0
SMALL
GASTEIGER

@<TRIPOS>ATOM
      1 N          63.4423   85.5596   13.8269 N.pl3   1  UNL1       -0.3025
      2 C          63.0403   85.7825   15.2547 C.3     1  UNL1        0.1124
      3 C          63.1963   87.1394   15.8747 C.3     1  UNL1        0.1149
      4 N          63.7544   88.2735   15.0668 N.am    1  UNL1       -0.2747
      5 C          63.9104   89.6304   15.6868 C.2     1  UNL1        0.2442
      6 O          63.5084   89.8533   17.1147 O.2     1  UNL1       -0.2731
      7 C          64.1564   88.0506   13.6390 C.3     1  UNL1        0.1149
      8 C          64.0003   86.6936   13.0190 C.3     1  UNL1        0.1124
      9 C          62.6888   84.0678   11.8376 C.ar    1  UNL1        0.0075
     10 C          62.5327   82.7109   11.2177 C.ar    1  UNL1       -0.0016
     11 C          62.9741   81.4887   11.9671 C.ar    1  UNL1        0.0021
     12 C          63.5715   81.6235   13.3363 C.ar    1  UNL1        0.0309
     13 C          63.7275   82.9804   13.9562 C.ar    1  UNL1        0.1530
     14 F          64.3250   83.1153   15.3256 F       1  UNL1       -0.2029
     15 C          63.2862   84.2026   13.2069 C.ar    1  UNL1        0.0730
     16 C          62.2474   85.2900   11.0883 C.3     1  UNL1        0.0781
     17 N          61.1744   86.1710   11.6560 N.3     1  UNL1       -0.2950
     18 H          61.2354   86.0925   12.6711 H       1  UNL1        0.1235
     19 C          61.1592   87.6362   11.3351 C.3     1  UNL1        0.0702
     20 C          59.8529   88.3622   11.2056 C.3     1  UNL1        0.0339
     21 C          59.5646   89.5485   12.0772 C.3     1  UNL1        0.0666
     22 N          59.3428   90.8971   11.4590 N.3     1  UNL1       -0.3211
     23 H          60.2059   91.2150   11.0180 H       1  UNL1        0.1189
     24 H          59.0658   91.5611   12.1821 H       1  UNL1        0.1189
     25 C          62.8791   85.6311    9.7713 C.3     1  UNL1        0.0203
     26 C          60.6934   86.0363    8.4264 C.3     1  UNL1        0.0001
     27 C          62.0899   85.4940    8.5031 C.3     1  UNL1        0.0017
     28 C          62.6972   84.8147    7.3115 C.3     1  UNL1        0.0001
     29 C          64.4684   90.7644   14.8790 C.3     1  UNL1        0.1564
     30 N          65.7462   91.4277   15.3001 N.am    1  UNL1       -0.2727
     31 C          67.1069   91.1650   14.7260 C.3     1  UNL1        0.0943
     32 C          68.0893   92.0451   15.4403 C.3     1  UNL1        0.0311
     33 C          67.3357   92.8518   16.4559 C.3     1  UNL1        0.0870
     34 C          65.8876   92.4702   16.3693 C.2     1  UNL1        0.2260
     35 O          64.7762   93.0324   17.2050 O.2     1  UNL1       -0.2749
     36 C          63.7487   91.2351   13.6499 C.3     1  UNL1        0.0564
     37 C          64.5034   91.9423   12.5635 C.ar    1  UNL1       -0.0094
     38 C          65.5345   92.9734   12.9154 C.ar    1  UNL1       -0.0025
     39 C          66.2891   93.6806   11.8290 C.ar    1  UNL1        0.0111
     40 C          66.0127   93.3566   10.3906 C.ar    1  UNL1        0.0585
     41 CL         66.7674   94.0638    9.3042 Cl      1  UNL1       -0.0822
     42 C          64.9817   92.3256   10.0388 C.ar    1  UNL1        0.0225
     43 C          64.2271   91.6184   11.1252 C.ar    1  UNL1        0.0546
     44 CL         63.1960   90.5873   10.7734 Cl      1  UNL1       -0.0825
@<TRIPOS>BOND
     1    26    27    1
     2    27    28    1
     3    27    25    1
     4    16    25    1
     5    16    17    1
     6    17    19    1
     7    19    20    1
     8    20    21    1
     9    21    22    1
    10    16     9    1
    11     9    10   ar
    12    10    11   ar
    13    11    12   ar
    14    12    13   ar
    15    13    14    1
    16    13    15   ar
    17    15     1    1
    18     1     2    1
    19     2     3    1
    20     3     4    1
    21     4     5   am
    22     5     6    2
    23     5    29    1
    24    29    36    1
    25    36    37    1
    26    37    38   ar
    27    38    39   ar
    28    39    40   ar
    29    40    41    1
    30    40    42   ar
    31    42    43   ar
    32    43    44    1
    33    29    30    1
    34    30    31    1
    35    31    32    1
    36    32    33    1
    37    33    34    1
    38    34    35    2
    39     4     7    1
    40     7     8    1
    41    15     9   ar
    42     8     1    1
    43    43    37   ar
    44    34    30   am
    45    17    18    1
    46    22    23    1
    47    22    24    1
@<TRIPOS>MOLECULE
*****
 44 47 0 0 0
SMALL
GASTEIGER

@<TRIPOS>ATOM
      1 N          61.5273   88.7589   10.5186 N.pl3   1  UNL1       -0.3025
      2 C          60.8702   89.1221   11.8172 C.3     1  UNL1        0.1124
      3 C          61.6282   89.9046   12.8482 C.3     1  UNL1        0.1149
      4 N          63.0434   90.3240   12.5807 N.am    1  UNL1       -0.2747
      5 C          63.8013   91.1065   13.6117 C.2     1  UNL1        0.2442
      6 O          63.1442   91.4698   14.9103 O.2     1  UNL1       -0.2731
      7 C          63.7005   89.9608   11.2821 C.3     1  UNL1        0.1149
      8 C          62.9424   89.1782   10.2511 C.3     1  UNL1        0.1124
      9 C          60.9752   86.4952    9.3691 C.ar    1  UNL1        0.0075
     10 C          60.2172   85.7127    8.3381 C.ar    1  UNL1       -0.0016
     11 C          59.2531   86.4113    7.4256 C.ar    1  UNL1        0.0021
     12 C          59.0472   87.8923    7.5441 C.ar    1  UNL1        0.0309
     13 C          59.8052   88.6748    8.5751 C.ar    1  UNL1        0.1530
     14 F          59.5992   90.1559    8.6936 F       1  UNL1       -0.2029
     15 C          60.7692   87.9763    9.4876 C.ar    1  UNL1        0.0730
     16 C          61.9393   85.7967   10.2816 C.3     1  UNL1        0.0781
     17 N          61.8403   85.9887   11.7660 N.3     1  UNL1       -0.2950
     18 H          61.3916   85.1533   12.1417 H       1  UNL1        0.1235
     19 C          63.0814   86.2156   12.5773 C.3     1  UNL1        0.0702
     20 C          63.3411   85.3849   13.7990 C.3     1  UNL1        0.0339
     21 C          64.4183   85.7853   14.7631 C.3     1  UNL1        0.0666
     22 N          65.7412   85.0786   14.7452 N.3     1  UNL1       -0.3211
     23 H          65.6117   84.1072   15.0279 H       1  UNL1        0.1189
     24 H          66.3812   85.5387   15.3927 H       1  UNL1        0.1189
     25 C          63.0022   84.9062    9.7098 C.3     1  UNL1        0.0203
     26 C          62.3572   82.9886   11.3398 C.3     1  UNL1        0.0001
     27 C          63.3314   83.6053   10.3802 C.3     1  UNL1        0.0017
     28 C          64.6345   82.9212   10.0909 C.3     1  UNL1        0.0001
     29 C          65.2164   91.5258   13.3441 C.3     1  UNL1        0.1564
     30 N          65.5110   92.5277   12.2674 N.am    1  UNL1       -0.2727
     31 C          65.4190   92.2867   10.7897 C.3     1  UNL1        0.0943
     32 C          65.8004   93.5566   10.0883 C.3     1  UNL1        0.0311
     33 C          66.1281   94.5824   11.1324 C.3     1  UNL1        0.0870
     34 C          65.9493   93.9466   12.4792 C.2     1  UNL1        0.2260
     35 O          66.1699   94.6126   13.8049 O.2     1  UNL1       -0.2749
     36 C          66.3371   90.9433   14.1534 C.3     1  UNL1        0.0564
     37 C          67.4247   91.8331   14.6780 C.ar    1  UNL1       -0.0094
     38 C          68.7489   91.8929   13.9757 C.ar    1  UNL1       -0.0025
     39 C          69.8365   92.7828   14.5003 C.ar    1  UNL1        0.0111
     40 C          69.6000   93.6128   15.7272 C.ar    1  UNL1        0.0585
     41 CL         70.6877   94.5026   16.2518 Cl      1  UNL1       -0.0822
     42 C          68.2760   93.5529   16.4294 C.ar    1  UNL1        0.0225
     43 C          67.1883   92.6631   15.9048 C.ar    1  UNL1        0.0546
     44 CL         65.8643   92.6032   16.6071 Cl      1  UNL1       -0.0825
@<TRIPOS>BOND
     1    26    27    1
     2    27    28    1
     3    27    25    1
     4    16    25    1
     5    16    17    1
     6    17    19    1
     7    19    20    1
     8    20    21    1
     9    21    22    1
    10    16     9    1
    11     9    10   ar
    12    10    11   ar
    13    11    12   ar
    14    12    13   ar
    15    13    14    1
    16    13    15   ar
    17    15     1    1
    18     1     2    1
    19     2     3    1
    20     3     4    1
    21     4     5   am
    22     5     6    2
    23     5    29    1
    24    29    36    1
    25    36    37    1
    26    37    38   ar
    27    38    39   ar
    28    39    40   ar
    29    40    41    1
    30    40    42   ar
    31    42    43   ar
    32    43    44    1
    33    29    30    1
    34    30    31    1
    35    31    32    1
    36    32    33    1
    37    33    34    1
    38    34    35    2
    39     4     7    1
    40     7     8    1
    41    15     9   ar
    42     8     1    1
    43    43    37   ar
    44    34    30   am
    45    17    18    1
    46    22    23    1
    47    22    24    1
@<TRIPOS>MOLECULE
*****
 44 47 0 0 0
SMALL
GASTEIGER

@<TRIPOS>ATOM
      1 N          63.6986   88.5700   14.4764 N.pl3   1  UNL1       -0.3025
      2 C          62.8701   88.6963   13.2323 C.3     1  UNL1        0.1124
      3 C          63.1768   89.7720   12.2329 C.3     1  UNL1        0.1149
      4 N          64.3121   90.7214   12.4776 N.am    1  UNL1       -0.2747
      5 C          64.6188   91.7971   11.4783 C.2     1  UNL1        0.2442
      6 O          63.7904   91.9234   10.2342 O.2     1  UNL1       -0.2731
      7 C          65.1405   90.5952   13.7217 C.3     1  UNL1        0.1149
      8 C          64.8337   89.5194   14.7211 C.3     1  UNL1        0.1124
      9 C          63.3594   86.0577   15.0453 C.ar    1  UNL1        0.0075
     10 C          63.0527   84.9821   16.0447 C.ar    1  UNL1       -0.0016
     11 C          62.7782   85.3429   17.4745 C.ar    1  UNL1        0.0021
     12 C          62.8105   86.7794   17.9050 C.ar    1  UNL1        0.0309
     13 C          63.1173   87.8551   16.9056 C.ar    1  UNL1        0.1530
     14 F          63.1496   89.2917   17.3361 F       1  UNL1       -0.2029
     15 C          63.3918   87.4942   15.4758 C.ar    1  UNL1        0.0730
     16 C          63.6339   85.6969   13.6155 C.3     1  UNL1        0.0781
     17 N          62.8425   86.3387   12.5148 N.3     1  UNL1       -0.2950
     18 H          63.5147   86.7816   11.8884 H       1  UNL1        0.1235
     19 C          61.9364   85.5050   11.6580 C.3     1  UNL1        0.0702
     20 C          61.4466   86.0380   10.3442 C.3     1  UNL1        0.0339
     21 C          60.6617   87.3154   10.2988 C.3     1  UNL1        0.0666
     22 N          60.0148   87.8429   11.5451 N.3     1  UNL1       -0.3211
     23 H          59.2801   87.2017   11.8444 H       1  UNL1        0.1189
     24 H          59.6096   88.7597   11.3560 H       1  UNL1        0.1189
     25 C          64.6999   84.6942   13.2863 C.3     1  UNL1        0.0203
     26 C          64.5805   83.0649   11.2661 C.3     1  UNL1        0.0001
     27 C          64.3233   83.3597   12.7143 C.3     1  UNL1        0.0017
     28 C          63.6896   82.3200   13.5903 C.3     1  UNL1        0.0001
     29 C          65.7540   92.7465   11.7230 C.3     1  UNL1        0.1564
     30 N          66.7865   92.9714   10.6584 N.am    1  UNL1       -0.2727
     31 C          67.8520   92.0001   10.2442 C.3     1  UNL1        0.0943
     32 C          68.6588   92.6354    9.1509 C.3     1  UNL1        0.0311
     33 C          68.0919   93.9993    8.8892 C.3     1  UNL1        0.0870
     34 C          66.9348   94.2070    9.8209 C.2     1  UNL1        0.2260
     35 O          66.0767   95.4346    9.9010 O.2     1  UNL1       -0.2749
     36 C          65.8568   93.4711   13.0324 C.3     1  UNL1        0.0564
     37 C          66.8964   93.0652   14.0346 C.ar    1  UNL1       -0.0094
     38 C          68.3195   92.8706   13.6021 C.ar    1  UNL1       -0.0025
     39 C          69.3591   92.4647   14.6044 C.ar    1  UNL1        0.0111
     40 C          68.9755   92.2533   16.0391 C.ar    1  UNL1        0.0585
     41 CL         70.0151   91.8473   17.0413 Cl      1  UNL1       -0.0822
     42 C          67.5525   92.4478   16.4715 C.ar    1  UNL1        0.0225
     43 C          66.5129   92.8538   15.4692 C.ar    1  UNL1        0.0546
     44 CL         65.0899   93.0483   15.9016 Cl      1  UNL1       -0.0825
@<TRIPOS>BOND
     1    26    27    1
     2    27    28    1
     3    27    25    1
     4    16    25    1
     5    16    17    1
     6    17    19    1
     7    19    20    1
     8    20    21    1
     9    21    22    1
    10    16     9    1
    11     9    10   ar
    12    10    11   ar
    13    11    12   ar
    14    12    13   ar
    15    13    14    1
    16    13    15   ar
    17    15     1    1
    18     1     2    1
    19     2     3    1
    20     3     4    1
    21     4     5   am
    22     5     6    2
    23     5    29    1
    24    29    36    1
    25    36    37    1
    26    37    38   ar
    27    38    39   ar
    28    39    40   ar
    29    40    41    1
    30    40    42   ar
    31    42    43   ar
    32    43    44    1
    33    29    30    1
    34    30    31    1
    35    31    32    1
    36    32    33    1
    37    33    34    1
    38    34    35    2
    39     4     7    1
    40     7     8    1
    41    15     9   ar
    42     8     1    1
    43    43    37   ar
    44    34    30   am
    45    17    18    1
    46    22    23    1
    47    22    24    1
@<TRIPOS>MOLECULE
*****
 44 47 0 0 0
SMALL
GASTEIGER

@<TRIPOS>ATOM
      1 N          63.1693   86.6187   13.5385 N.pl3   1  UNL1       -0.3025
      2 C          62.3443   87.3543   12.5245 C.3     1  UNL1        0.1124
      3 C          62.6987   88.7623   12.1480 C.3     1  UNL1        0.1149
      4 N          63.8783   89.4348   12.7856 N.am    1  UNL1       -0.2747
      5 C          64.2328   90.8428   12.4092 C.2     1  UNL1        0.2442
      6 O          63.4077   91.5784   11.3952 O.2     1  UNL1       -0.2731
      7 C          64.7033   88.6992   13.7996 C.3     1  UNL1        0.1149
      8 C          64.3488   87.2911   14.1760 C.3     1  UNL1        0.1124
      9 C          62.5228   84.1994   12.8462 C.ar    1  UNL1        0.0075
     10 C          62.1682   82.7914   13.2226 C.ar    1  UNL1       -0.0016
     11 C          62.1058   82.3945   14.6678 C.ar    1  UNL1        0.0021
     12 C          62.3978   83.4057   15.7366 C.ar    1  UNL1        0.0309
     13 C          62.7523   84.8137   15.3601 C.ar    1  UNL1        0.1530
     14 F          63.0443   85.8249   16.4289 F       1  UNL1       -0.2029
     15 C          62.8148   85.2106   13.9149 C.ar    1  UNL1        0.0730
     16 C          62.5852   84.5963   11.4010 C.3     1  UNL1        0.0781
     17 N          61.6304   85.6201   10.8624 N.3     1  UNL1       -0.2950
     18 H          61.7541   86.4623   11.4243 H       1  UNL1        0.1235
     19 C          61.7151   86.0419    9.4254 C.3     1  UNL1        0.0702
     20 C          60.6428   86.9081    8.8337 C.3     1  UNL1        0.0339
     21 C          59.7586   86.3705    7.7478 C.3     1  UNL1        0.0666
     22 N          58.2854   86.6518    7.7721 N.3     1  UNL1       -0.3211
     23 H          57.8646   86.1908    8.5788 H       1  UNL1        0.1189
     24 H          57.8575   86.2977    6.9166 H       1  UNL1        0.1189
     25 C          63.6025   83.9693   10.4944 C.3     1  UNL1        0.0203
     26 C          65.2151   82.4409   11.8411 C.3     1  UNL1        0.0001
     27 C          64.1437   82.6051   10.8041 C.3     1  UNL1        0.0017
     28 C          63.6136   81.4050   10.0770 C.3     1  UNL1        0.0001
     29 C          65.4123   91.5153   13.0467 C.3     1  UNL1        0.1564
     30 N          65.3684   91.8884   14.4989 N.am    1  UNL1       -0.2727
     31 C          64.2374   91.6153   15.4456 C.3     1  UNL1        0.0943
     32 C          64.6178   92.1583   16.7912 C.3     1  UNL1        0.0311
     33 C          65.9839   92.7670   16.6761 C.3     1  UNL1        0.0870
     34 C          66.4479   92.6002   15.2594 C.2     1  UNL1        0.2260
     35 O          67.7606   93.0637   14.7012 O.2     1  UNL1       -0.2749
     36 C          66.6358   91.8146   12.2321 C.3     1  UNL1        0.0564
     37 C          66.7070   93.0744   11.4210 C.ar    1  UNL1       -0.0094
     38 C          66.0075   94.3132   11.8967 C.ar    1  UNL1       -0.0025
     39 C          66.0788   95.5730   11.0856 C.ar    1  UNL1        0.0111
     40 C          66.8496   95.5940    9.7989 C.ar    1  UNL1        0.0585
     41 CL         66.9208   96.8538    8.9878 Cl      1  UNL1       -0.0822
     42 C          67.5490   94.3552    9.3233 C.ar    1  UNL1        0.0225
     43 C          67.4778   93.0954   10.1344 C.ar    1  UNL1        0.0546
     44 CL         68.1772   91.8567    9.6588 Cl      1  UNL1       -0.0825
@<TRIPOS>BOND
     1    26    27    1
     2    27    28    1
     3    27    25    1
     4    16    25    1
     5    16    17    1
     6    17    19    1
     7    19    20    1
     8    20    21    1
     9    21    22    1
    10    16     9    1
    11     9    10   ar
    12    10    11   ar
    13    11    12   ar
    14    12    13   ar
    15    13    14    1
    16    13    15   ar
    17    15     1    1
    18     1     2    1
    19     2     3    1
    20     3     4    1
    21     4     5   am
    22     5     6    2
    23     5    29    1
    24    29    36    1
    25    36    37    1
    26    37    38   ar
    27    38    39   ar
    28    39    40   ar
    29    40    41    1
    30    40    42   ar
    31    42    43   ar
    32    43    44    1
    33    29    30    1
    34    30    31    1
    35    31    32    1
    36    32    33    1
    37    33    34    1
    38    34    35    2
    39     4     7    1
    40     7     8    1
    41    15     9   ar
    42     8     1    1
    43    43    37   ar
    44    34    30   am
    45    17    18    1
    46    22    23    1
    47    22    24    1
