@<TRIPOS>MOLECULE
*****
 20 21 0 0 0
SMALL
GASTEIGER

@<TRIPOS>ATOM
      1 C          61.8663   89.7386   11.1589 C.2     1  UNL1        0.0000
      2 C          63.0004   89.4885   12.1082 C.2     1  UNL1        0.0001
      3 C          60.6479   86.5555    8.2207 C.ar    1  UNL1        0.1387
      4 C          59.9427   87.8793    8.2276 C.ar    1  UNL1        0.0369
      5 C          60.3488   88.9404    9.2071 C.ar    1  UNL1        0.0031
      6 C          61.4602   88.6776   10.1795 C.ar    1  UNL1        0.0002
      7 C          62.1654   87.3538   10.1726 C.ar    1  UNL1        0.0031
      8 C          61.7593   86.2927    9.1931 C.ar    1  UNL1        0.0369
      9 C          61.2892   84.7118    6.5062 C.3     1  UNL1        0.2525
     10 O          60.2418   85.4945    7.2413 O.3     1  UNL1       -0.4714
     11 C          63.4065   90.5496   13.0877 C.2     1  UNL1        0.0033
     12 C          63.9345   90.1621   14.4372 C.2     1  UNL1        0.0435
     13 C          64.3406   91.2231   15.4166 C.2     1  UNL1        0.2111
     14 O          63.3734   91.6849   16.4661 O.2     1  UNL1       -0.2850
     15 C          65.7139   91.8223   15.3466 C.ar    1  UNL1        0.0961
     16 C          66.7702   91.4905   14.3346 C.ar    1  UNL1        0.0218
     17 C          67.9811   92.3217   14.6389 C.ar    1  UNL1        0.0200
     18 C          67.6733   93.1673   15.8390 C.ar    1  UNL1        0.0725
     19 N          66.2721   92.8586   16.2764 N.ar    1  UNL1       -0.3495
     20 H          65.8014   93.2649   17.0397 H       1  UNL1        0.1661
@<TRIPOS>BOND
     1     9    10    1
     2    10     3    1
     3     3     4   ar
     4     4     5   ar
     5     5     6   ar
     6     6     1    1
     7     1     2    2
     8     2    11    1
     9    11    12    2
    10    12    13    1
    11    13    14    2
    12    13    15    1
    13    15    16   ar
    14    16    17   ar
    15    17    18   ar
    16    18    19   ar
    17     6     7   ar
    18     7     8   ar
    19     8     3   ar
    20    19    15   ar
    21    19    20    1
@<TRIPOS>MOLECULE
*****
 20 21 0 0 0
SMALL
GASTEIGER

@<TRIPOS>ATOM
      1 C          64.3627   86.4180   14.9346 C.2     1  UNL1        0.0000
      2 C          64.1722   87.7508   14.2733 C.2     1  UNL1        0.0001
      3 C          62.9136   82.6718   12.9058 C.ar    1  UNL1        0.1387
      4 C          62.8472   83.9872   12.1879 C.ar    1  UNL1        0.0369
      5 C          63.3302   85.2359   12.8642 C.ar    1  UNL1        0.0031
      6 C          63.8797   85.1693   14.2583 C.ar    1  UNL1        0.0002
      7 C          63.9462   83.8539   14.9761 C.ar    1  UNL1        0.0031
      8 C          63.4631   82.6052   14.2999 C.ar    1  UNL1        0.0369
      9 C          62.4408   80.1179   12.9686 C.3     1  UNL1        0.2525
     10 O          62.4306   81.4231   12.2295 O.3     1  UNL1       -0.4714
     11 C          64.6552   88.9995   14.9496 C.2     1  UNL1        0.0033
     12 C          63.7614   90.2013   15.0324 C.2     1  UNL1        0.0435
     13 C          64.2444   91.4501   15.7087 C.2     1  UNL1        0.2111
     14 O          63.3443   92.1857   16.6568 O.2     1  UNL1       -0.2850
     15 C          65.6274   91.9632   15.4370 C.ar    1  UNL1        0.0961
     16 C          66.4289   91.7211   14.1924 C.ar    1  UNL1        0.0218
     17 C          67.7487   92.4167   14.3483 C.ar    1  UNL1        0.0200
     18 C          67.7628   93.0888   15.6893 C.ar    1  UNL1        0.0725
     19 N          66.4518   92.8085   16.3621 N.ar    1  UNL1       -0.3495
     20 H          66.1801   93.1239   17.2542 H       1  UNL1        0.1661
@<TRIPOS>BOND
     1     9    10    1
     2    10     3    1
     3     3     4   ar
     4     4     5   ar
     5     5     6   ar
     6     6     1    1
     7     1     2    2
     8     2    11    1
     9    11    12    2
    10    12    13    1
    11    13    14    2
    12    13    15    1
    13    15    16   ar
    14    16    17   ar
    15    17    18   ar
    16    18    19   ar
    17     6     7   ar
    18     7     8   ar
    19     8     3   ar
    20    19    15   ar
    21    19    20    1
@<TRIPOS>MOLECULE
*****
 20 21 0 0 0
SMALL
GASTEIGER

@<TRIPOS>ATOM
      1 C          63.9515   89.2989   14.5602 C.2     1  UNL1        0.0000
      2 C          64.5950   87.9449   14.6108 C.2     1  UNL1        0.0001
      3 C          66.1414   92.7628   12.7011 C.ar    1  UNL1        0.1387
      4 C          66.6188   92.1836   13.9997 C.ar    1  UNL1        0.0369
      5 C          65.8889   91.0290   14.6194 C.ar    1  UNL1        0.0031
      6 C          64.6815   90.4535   13.9405 C.ar    1  UNL1        0.0002
      7 C          64.2040   91.0327   12.6418 C.ar    1  UNL1        0.0031
      8 C          64.9340   92.1873   12.0221 C.ar    1  UNL1        0.0369
      9 C          66.1253   94.9146   11.2453 C.3     1  UNL1        0.2525
     10 O          66.8713   93.9174   12.0814 O.3     1  UNL1       -0.4714
     11 C          63.8651   86.7903   15.2305 C.2     1  UNL1        0.0033
     12 C          63.6488   85.5309   14.4447 C.2     1  UNL1        0.0435
     13 C          62.9189   84.3763   15.0644 C.2     1  UNL1        0.2111
     14 O          62.3923   84.4864   16.4646 O.2     1  UNL1       -0.2850
     15 C          62.7156   83.1116   14.2839 C.ar    1  UNL1        0.0961
     16 C          62.9092   82.9471   12.8056 C.ar    1  UNL1        0.0218
     17 C          62.5962   81.5232   12.4527 C.ar    1  UNL1        0.0200
     18 C          62.2091   80.8077   13.7130 C.ar    1  UNL1        0.0725
     19 N          62.2829   81.7894   14.8447 N.ar    1  UNL1       -0.3495
     20 H          62.0826   81.5993   15.7897 H       1  UNL1        0.1661
@<TRIPOS>BOND
     1     9    10    1
     2    10     3    1
     3     3     4   ar
     4     4     5   ar
     5     5     6   ar
     6     6     1    1
     7     1     2    2
     8     2    11    1
     9    11    12    2
    10    12    13    1
    11    13    14    2
    12    13    15    1
    13    15    16   ar
    14    16    17   ar
    15    17    18   ar
    16    18    19   ar
    17     6     7   ar
    18     7     8   ar
    19     8     3   ar
    20    19    15   ar
    21    19    20    1
@<TRIPOS>MOLECULE
*****
 20 21 0 0 0
SMALL
GASTEIGER

@<TRIPOS>ATOM
      1 C          64.6333   86.7177   14.9959 C.2     1  UNL1        0.0000
      2 C          63.9935   87.8621   14.2674 C.2     1  UNL1        0.0001
      3 C          63.1511   82.5203   14.3363 C.ar    1  UNL1        0.1387
      4 C          64.2320   83.0804   13.4599 C.ar    1  UNL1        0.0369
      5 C          64.7260   84.4795   13.6798 C.ar    1  UNL1        0.0031
      6 C          64.1393   85.3185   14.7760 C.ar    1  UNL1        0.0002
      7 C          63.0584   84.7584   15.6523 C.ar    1  UNL1        0.0031
      8 C          62.5644   83.3593   15.4325 C.ar    1  UNL1        0.0369
      9 C          61.1858   80.8557   13.9949 C.3     1  UNL1        0.2525
     10 O          62.6571   81.1212   14.1164 O.3     1  UNL1       -0.4714
     11 C          64.4876   89.2613   14.4873 C.2     1  UNL1        0.0033
     12 C          63.8835   90.1089   15.5674 C.2     1  UNL1        0.0435
     13 C          64.3776   91.5080   15.7873 C.2     1  UNL1        0.2111
     14 O          63.6265   92.4343   16.6973 O.2     1  UNL1       -0.2850
     15 C          65.6226   91.9809   15.0973 C.ar    1  UNL1        0.0961
     16 C          66.9227   92.3246   15.7619 C.ar    1  UNL1        0.0218
     17 C          67.8898   92.7492   14.6969 C.ar    1  UNL1        0.0200
     18 C          67.1874   92.6680   13.3739 C.ar    1  UNL1        0.0725
     19 N          65.7862   92.1931   13.6214 N.ar    1  UNL1       -0.3495
     20 H          65.0953   92.0465   12.9356 H       1  UNL1        0.1661
@<TRIPOS>BOND
     1     9    10    1
     2    10     3    1
     3     3     4   ar
     4     4     5   ar
     5     5     6   ar
     6     6     1    1
     7     1     2    2
     8     2    11    1
     9    11    12    2
    10    12    13    1
    11    13    14    2
    12    13    15    1
    13    15    16   ar
    14    16    17   ar
    15    17    18   ar
    16    18    19   ar
    17     6     7   ar
    18     7     8   ar
    19     8     3   ar
    20    19    15   ar
    21    19    20    1
@<TRIPOS>MOLECULE
*****
 20 21 0 0 0
SMALL
GASTEIGER

@<TRIPOS>ATOM
      1 C          63.0006   89.3977   12.4477 C.2     1  UNL1        0.0000
      2 C          63.8481   88.7239   13.4859 C.2     1  UNL1        0.0001
      3 C          60.9663   86.9484    9.2677 C.ar    1  UNL1        0.1387
      4 C          61.7404   86.2682   10.3577 C.ar    1  UNL1        0.0369
      5 C          62.4185   87.0846   11.4177 C.ar    1  UNL1        0.0031
      6 C          62.3225   88.5812   11.3877 C.ar    1  UNL1        0.0002
      7 C          61.5484   89.2614   10.2978 C.ar    1  UNL1        0.0031
      8 C          60.8703   88.4450    9.2378 C.ar    1  UNL1        0.0369
      9 C          59.0328   86.6370    7.5605 C.3     1  UNL1        0.2525
     10 O          60.2882   86.1319    8.2077 O.3     1  UNL1       -0.4714
     11 C          64.5262   89.5403   14.5459 C.2     1  UNL1        0.0033
     12 C          64.5899   91.0334   14.4164 C.2     1  UNL1        0.0435
     13 C          65.2680   91.8498   15.4764 C.2     1  UNL1        0.2111
     14 O          64.4905   92.3281   16.6668 O.2     1  UNL1       -0.2850
     15 C          66.7235   92.1881   15.3461 C.ar    1  UNL1        0.0961
     16 C          67.4856   93.1508   16.2078 C.ar    1  UNL1        0.0218
     17 C          68.9056   93.1807   15.7255 C.ar    1  UNL1        0.0200
     18 C          69.0212   92.2363   14.5657 C.ar    1  UNL1        0.0725
     19 N          67.6726   91.6229   14.3313 N.ar    1  UNL1       -0.3495
     20 H          67.4495   90.9648   13.6339 H       1  UNL1        0.1661
@<TRIPOS>BOND
     1     9    10    1
     2    10     3    1
     3     3     4   ar
     4     4     5   ar
     5     5     6   ar
     6     6     1    1
     7     1     2    2
     8     2    11    1
     9    11    12    2
    10    12    13    1
    11    13    14    2
    12    13    15    1
    13    15    16   ar
    14    16    17   ar
    15    17    18   ar
    16    18    19   ar
    17     6     7   ar
    18     7     8   ar
    19     8     3   ar
    20    19    15   ar
    21    19    20    1
@<TRIPOS>MOLECULE
*****
 20 21 0 0 0
SMALL
GASTEIGER

@<TRIPOS>ATOM
      1 C          64.0300   90.4291   13.4161 C.2     1  UNL1        0.0000
      2 C          64.7381   89.5881   14.4365 C.2     1  UNL1        0.0001
      3 C          66.1849   93.8414   11.4255 C.ar    1  UNL1        0.1387
      4 C          66.4333   93.5403   12.8738 C.ar    1  UNL1        0.0369
      5 C          65.7150   92.4029   13.5373 C.ar    1  UNL1        0.0031
      6 C          64.7483   91.5665   12.7526 C.ar    1  UNL1        0.0002
      7 C          64.4999   91.8676   11.3043 C.ar    1  UNL1        0.0031
      8 C          65.2182   93.0050   10.6408 C.ar    1  UNL1        0.0369
      9 C          66.4662   96.3913   11.0146 C.3     1  UNL1        0.2525
     10 O          66.9032   94.9788   10.7620 O.3     1  UNL1       -0.4714
     11 C          64.0198   88.4506   15.1000 C.2     1  UNL1        0.0033
     12 C          64.4542   87.0379   14.8439 C.2     1  UNL1        0.0435
     13 C          63.7359   85.9004   15.5074 C.2     1  UNL1        0.2111
     14 O          63.1490   86.0804   16.8762 O.2     1  UNL1       -0.2850
     15 C          63.6044   84.5831   14.8024 C.ar    1  UNL1        0.0961
     16 C          62.4562   83.6261   14.9287 C.ar    1  UNL1        0.0218
     17 C          62.7402   82.4429   14.0516 C.ar    1  UNL1        0.0200
     18 C          64.0639   82.6687   13.3830 C.ar    1  UNL1        0.0725
     19 N          64.5980   83.9913   13.8471 N.ar    1  UNL1       -0.3495
     20 H          65.4509   84.3994   13.5728 H       1  UNL1        0.1661
@<TRIPOS>BOND
     1     9    10    1
     2    10     3    1
     3     3     4   ar
     4     4     5   ar
     5     5     6   ar
     6     6     1    1
     7     1     2    2
     8     2    11    1
     9    11    12    2
    10    12    13    1
    11    13    14    2
    12    13    15    1
    13    15    16   ar
    14    16    17   ar
    15    17    18   ar
    16    18    19   ar
    17     6     7   ar
    18     7     8   ar
    19     8     3   ar
    20    19    15   ar
    21    19    20    1
@<TRIPOS>MOLECULE
*****
 20 21 0 0 0
SMALL
GASTEIGER

@<TRIPOS>ATOM
      1 C          62.1011   90.2905   10.9016 C.2     1  UNL1        0.0000
      2 C          63.5668   90.5979   10.8182 C.2     1  UNL1        0.0001
      3 C          60.3262   87.0714    8.3059 C.ar    1  UNL1        0.1387
      4 C          61.5116   86.7670    9.1731 C.ar    1  UNL1        0.0369
      5 C          62.1033   87.8401   10.0383 C.ar    1  UNL1        0.0031
      6 C          61.5094   89.2175   10.0364 C.ar    1  UNL1        0.0002
      7 C          60.3240   89.5219    9.1692 C.ar    1  UNL1        0.0031
      8 C          59.7323   88.4488    8.3040 C.ar    1  UNL1        0.0369
      9 C          60.6125   84.9215    6.8756 C.3     1  UNL1        0.2525
     10 O          59.7345   85.9984    7.4407 O.3     1  UNL1       -0.4714
     11 C          64.1585   91.6709   11.6835 C.2     1  UNL1        0.0033
     12 C          65.4138   92.3720   11.2559 C.2     1  UNL1        0.0435
     13 C          66.0055   93.4450   12.1211 C.2     1  UNL1        0.2111
     14 O          65.9735   94.8751   11.6696 O.2     1  UNL1       -0.2850
     15 C          66.6291   93.0879   13.4378 C.ar    1  UNL1        0.0961
     16 C          67.5324   91.9189   13.6974 C.ar    1  UNL1        0.0218
     17 C          67.9205   91.9456   15.1460 C.ar    1  UNL1        0.0200
     18 C          67.2570   93.1313   15.7818 C.ar    1  UNL1        0.0725
     19 N          66.4589   93.8372   14.7260 N.ar    1  UNL1       -0.3495
     20 H          65.9183   94.6497   14.8558 H       1  UNL1        0.1661
@<TRIPOS>BOND
     1     9    10    1
     2    10     3    1
     3     3     4   ar
     4     4     5   ar
     5     5     6   ar
     6     6     1    1
     7     1     2    2
     8     2    11    1
     9    11    12    2
    10    12    13    1
    11    13    14    2
    12    13    15    1
    13    15    16   ar
    14    16    17   ar
    15    17    18   ar
    16    18    19   ar
    17     6     7   ar
    18     7     8   ar
    19     8     3   ar
    20    19    15   ar
    21    19    20    1
@<TRIPOS>MOLECULE
*****
 20 21 0 0 0
SMALL
GASTEIGER

@<TRIPOS>ATOM
      1 C          63.5707   86.4272   13.2381 C.2     1  UNL1        0.0000
      2 C          64.2082   86.9208   14.5029 C.2     1  UNL1        0.0001
      3 C          62.9270   82.0173   12.6151 C.ar    1  UNL1        0.1387
      4 C          63.1374   82.5564   13.9989 C.ar    1  UNL1        0.0369
      5 C          63.3519   84.0264   14.2066 C.ar    1  UNL1        0.0031
      6 C          63.3561   84.9572   13.0304 C.ar    1  UNL1        0.0002
      7 C          63.1458   84.4181   11.6466 C.ar    1  UNL1        0.0031
      8 C          62.9313   82.9481   11.4389 C.ar    1  UNL1        0.0369
      9 C          62.1513   79.7073   13.5161 C.3     1  UNL1        0.2525
     10 O          62.7125   80.5473   12.4074 O.3     1  UNL1       -0.4714
     11 C          64.4228   88.3908   14.7106 C.2     1  UNL1        0.0033
     12 C          63.8873   89.3751   13.7133 C.2     1  UNL1        0.0435
     13 C          64.1018   90.8451   13.9210 C.2     1  UNL1        0.2111
     14 O          63.5995   91.5073   15.1697 O.2     1  UNL1       -0.2850
     15 C          64.8186   91.6529   12.8801 C.ar    1  UNL1        0.0961
     16 C          66.0548   92.4741   13.0981 C.ar    1  UNL1        0.0218
     17 C          66.4254   93.1100   11.7911 C.ar    1  UNL1        0.0200
     18 C          65.4181   92.6818   10.7652 C.ar    1  UNL1        0.0725
     19 N          64.4252   91.7813   11.4383 N.ar    1  UNL1       -0.3495
     20 H          63.6511   91.3502   11.0091 H       1  UNL1        0.1661
@<TRIPOS>BOND
     1     9    10    1
     2    10     3    1
     3     3     4   ar
     4     4     5   ar
     5     5     6   ar
     6     6     1    1
     7     1     2    2
     8     2    11    1
     9    11    12    2
    10    12    13    1
    11    13    14    2
    12    13    15    1
    13    15    16   ar
    14    16    17   ar
    15    17    18   ar
    16    18    19   ar
    17     6     7   ar
    18     7     8   ar
    19     8     3   ar
    20    19    15   ar
    21    19    20    1
@<TRIPOS>MOLECULE
*****
 20 21 0 0 0
SMALL
GASTEIGER

@<TRIPOS>ATOM
      1 C          63.9339   86.6988   13.7436 C.2     1  UNL1        0.0000
      2 C          64.2685   87.5117   14.9589 C.2     1  UNL1        0.0001
      3 C          62.6260   82.4164   14.1909 C.ar    1  UNL1        0.1387
      4 C          62.7716   83.2867   15.4038 C.ar    1  UNL1        0.0369
      5 C          63.2075   84.7142   15.2547 C.ar    1  UNL1        0.0031
      6 C          63.4979   85.2713   13.8927 C.ar    1  UNL1        0.0002
      7 C          63.3524   84.4010   12.6797 C.ar    1  UNL1        0.0031
      8 C          62.9165   82.9735   12.8289 C.ar    1  UNL1        0.0369
      9 C          62.3493   80.0326   13.1954 C.3     1  UNL1        0.2525
     10 O          62.1901   80.9889   14.3400 O.3     1  UNL1       -0.4714
     11 C          64.7045   88.9392   14.8098 C.2     1  UNL1        0.0033
     12 C          64.2308   89.7497   13.6399 C.2     1  UNL1        0.0435
     13 C          64.6667   91.1772   13.4908 C.2     1  UNL1        0.2111
     14 O          63.9427   92.0874   12.5434 O.2     1  UNL1       -0.2850
     15 C          65.8266   91.6945   14.2889 C.ar    1  UNL1        0.0961
     16 C          65.7518   92.3142   15.6529 C.ar    1  UNL1        0.0218
     17 C          67.1439   92.6856   16.0702 C.ar    1  UNL1        0.0200
     18 C          68.0790   92.2954   14.9641 C.ar    1  UNL1        0.0725
     19 N          67.2648   91.6829   13.8633 N.ar    1  UNL1       -0.3495
     20 H          67.6133   91.3344   13.0110 H       1  UNL1        0.1661
@<TRIPOS>BOND
     1     9    10    1
     2    10     3    1
     3     3     4   ar
     4     4     5   ar
     5     5     6   ar
     6     6     1    1
     7     1     2    2
     8     2    11    1
     9    11    12    2
    10    12    13    1
    11    13    14    2
    12    13    15    1
    13    15    16   ar
    14    16    17   ar
    15    17    18   ar
    16    18    19   ar
    17     6     7   ar
    18     7     8   ar
    19     8     3   ar
    20    19    15   ar
    21    19    20    1
