@<TRIPOS>MOLECULE
*****
 31 35 0 0 0
SMALL
GASTEIGER

@<TRIPOS>ATOM
      1 C          65.6505   91.4595   13.6234 C.2     1  UNL1        0.2685
      2 O          66.5578   91.1626   14.7804 O.2     1  UNL1       -0.2682
      3 N          64.4111   90.6412   13.4131 N.am    1  UNL1       -0.2723
      4 C          64.0790   89.5261   14.3596 C.3     1  UNL1        0.0761
      5 C          63.3959   89.6704   15.6872 C.3     1  UNL1        0.0213
      6 C          63.2664   88.3042   16.2929 C.3     1  UNL1        0.0188
      7 C          62.7642   87.5492   17.4877 C.3     1  UNL1        0.0686
      8 N          63.0570   86.0938   17.2729 N.3     1  UNL1       -0.2975
      9 C          63.7401   85.9494   15.9453 C.3     1  UNL1        0.0686
     10 C          63.8696   87.3155   15.3396 C.3     1  UNL1        0.0188
     11 C          64.3718   88.0706   14.1448 C.3     1  UNL1        0.0213
     12 H          62.1867   85.5618   17.2740 H       1  UNL1        0.1232
     13 C          67.1368   94.1019    9.3003 C.3     1  UNL1        0.1321
     14 N          66.6658   93.7893   10.6898 N.ar    1  UNL1       -0.3057
     15 C          66.3217   94.7923   11.7506 C.ar    1  UNL1        0.1787
     16 N          65.8995   94.0416   12.9787 N.ar    1  UNL1       -0.2192
     17 C          65.9827   92.5748   12.6768 C.ar    1  UNL1        0.1535
     18 C          66.4562   92.4188   11.2622 C.ar    1  UNL1        0.1012
     19 C          63.5038   90.9382   12.2560 C.3     1  UNL1        0.1205
     20 C          62.4224   89.9681   11.8828 C.ar    1  UNL1        0.0007
     21 C          61.0007   90.2424   12.2747 C.ar    1  UNL1       -0.0024
     22 C          59.9192   89.2722   11.9014 C.ar    1  UNL1        0.0028
     23 C          60.2596   88.0277   11.1363 C.ar    1  UNL1        0.0369
     24 C          61.6812   87.7534   10.7445 C.ar    1  UNL1        0.1381
     25 C          62.7626   88.7236   11.1177 C.ar    1  UNL1        0.0343
     26 O          62.0216   86.5088    9.9793 O.3     1  UNL1       -0.4792
     27 C          62.6701   85.3517   10.6797 C.3     1  UNL1        0.1659
     28 C          63.4067   84.2230   10.0212 C.3     1  UNL1        0.0435
     29 C          63.8877   83.2938   11.0960 C.3     1  UNL1        0.0038
     30 C          63.4484   83.8483   12.4188 C.3     1  UNL1        0.0038
     31 C          62.6959   85.1201   12.1615 C.3     1  UNL1        0.0435
@<TRIPOS>BOND
     1    13    14    1
     2    14    15   ar
     3    15    16   ar
     4    16    17   ar
     5    17     1    1
     6     1     2    2
     7     1     3   am
     8     3    19    1
     9    19    20    1
    10    20    21   ar
    11    21    22   ar
    12    22    23   ar
    13    23    24   ar
    14    24    26    1
    15    26    27    1
    16    27    28    1
    17    28    29    1
    18    29    30    1
    19    30    31    1
    20    24    25   ar
    21     4     3    1
    22     4     5    1
    23     6     5    1
    24     6     7    1
    25     7     8    1
    26     8     9    1
    27    10     9    1
    28    10    11    1
    29    17    18   ar
    30    18    14   ar
    31    25    20   ar
    32    11     4    1
    33    31    27    1
    34    10     6    1
    35     8    12    1
@<TRIPOS>MOLECULE
*****
 31 35 0 0 0
SMALL
GASTEIGER

@<TRIPOS>ATOM
      1 C          65.1004   91.6062   12.6745 C.2     1  UNL1        0.2685
      2 O          65.2890   91.7701   11.1955 O.2     1  UNL1       -0.2682
      3 N          63.9624   90.7814   13.1986 N.am    1  UNL1       -0.2723
      4 C          63.0130   90.1206   12.2438 C.3     1  UNL1        0.0761
      5 C          62.9890   88.6627   11.8915 C.3     1  UNL1        0.0213
      6 C          61.8821   88.4427   10.9035 C.3     1  UNL1        0.0188
      7 C          61.1831   87.4057   10.0752 C.3     1  UNL1        0.0686
      8 N          60.0910   88.0867    9.3048 N.3     1  UNL1       -0.2975
      9 C          60.1149   89.5445    9.6570 C.3     1  UNL1        0.0686
     10 C          61.2219   89.7646   10.6451 C.3     1  UNL1        0.0188
     11 C          61.9208   90.8016   11.4734 C.3     1  UNL1        0.0213
     12 H          59.1878   87.6847    9.5560 H       1  UNL1        0.1232
     13 C          68.9980   92.3808   16.1515 C.3     1  UNL1        0.1321
     14 N          67.8414   92.6231   15.2275 N.ar    1  UNL1       -0.3057
     15 C          67.1806   93.9448   14.9699 C.ar    1  UNL1        0.1787
     16 N          66.0734   93.7247   13.9822 N.ar    1  UNL1       -0.2192
     17 C          66.0499   92.2671   13.6294 C.ar    1  UNL1        0.1535
     18 C          67.1426   91.5862   14.3990 C.ar    1  UNL1        0.1012
     19 C          63.7739   90.6175   14.6777 C.3     1  UNL1        0.1205
     20 C          63.7038   89.2443   15.2772 C.ar    1  UNL1        0.0007
     21 C          62.9680   89.0251   16.5657 C.ar    1  UNL1       -0.0024
     22 C          62.8979   87.6518   17.1652 C.ar    1  UNL1        0.0028
     23 C          63.5637   86.4978   16.4759 C.ar    1  UNL1        0.0369
     24 C          64.2995   86.7170   15.1874 C.ar    1  UNL1        0.1381
     25 C          64.3696   88.0903   14.5880 C.ar    1  UNL1        0.0343
     26 O          64.9654   85.5630   14.4982 O.3     1  UNL1       -0.4792
     27 C          64.1835   84.7039   13.5493 C.3     1  UNL1        0.1659
     28 C          63.0899   85.1701   12.6345 C.3     1  UNL1        0.0435
     29 C          62.5884   83.9820   11.8683 C.3     1  UNL1        0.0038
     30 C          63.3721   82.7815   12.3096 C.3     1  UNL1        0.0038
     31 C          64.3579   83.2277   13.3484 C.3     1  UNL1        0.0435
@<TRIPOS>BOND
     1    13    14    1
     2    14    15   ar
     3    15    16   ar
     4    16    17   ar
     5    17     1    1
     6     1     2    2
     7     1     3   am
     8     3    19    1
     9    19    20    1
    10    20    21   ar
    11    21    22   ar
    12    22    23   ar
    13    23    24   ar
    14    24    26    1
    15    26    27    1
    16    27    28    1
    17    28    29    1
    18    29    30    1
    19    30    31    1
    20    24    25   ar
    21     4     3    1
    22     4     5    1
    23     6     5    1
    24     6     7    1
    25     7     8    1
    26     8     9    1
    27    10     9    1
    28    10    11    1
    29    17    18   ar
    30    18    14   ar
    31    25    20   ar
    32    11     4    1
    33    31    27    1
    34    10     6    1
    35     8    12    1
@<TRIPOS>MOLECULE
*****
 31 35 0 0 0
SMALL
GASTEIGER

@<TRIPOS>ATOM
      1 C          65.5920   91.4535   13.3748 C.2     1  UNL1        0.2685
      2 O          66.6114   91.1346   14.4279 O.2     1  UNL1       -0.2682
      3 N          64.2941   90.7025   13.3356 N.am    1  UNL1       -0.2723
      4 C          64.0156   89.6327   14.3494 C.3     1  UNL1        0.0761
      5 C          63.3486   89.8296   15.6785 C.3     1  UNL1        0.0213
      6 C          63.2760   88.4968   16.3627 C.3     1  UNL1        0.0188
      7 C          62.8189   87.7947   17.6070 C.3     1  UNL1        0.0686
      8 N          63.1586   86.3402   17.4698 N.3     1  UNL1       -0.2975
      9 C          63.8256   86.1432   16.1407 C.3     1  UNL1        0.0686
     10 C          63.8982   87.4761   15.4565 C.3     1  UNL1        0.0188
     11 C          64.3553   88.1781   14.2122 C.3     1  UNL1        0.0213
     12 H          62.3074   85.7801   17.5163 H       1  UNL1        0.1232
     13 C          66.5551   96.1531   11.1689 C.3     1  UNL1        0.1321
     14 N          66.3132   94.6835   11.3470 N.ar    1  UNL1       -0.3057
     15 C          66.2851   93.6559   10.2548 C.ar    1  UNL1        0.1787
     16 N          66.0115   92.3208   10.8815 N.ar    1  UNL1       -0.2192
     17 C          65.8705   92.5233   12.3609 C.ar    1  UNL1        0.1535
     18 C          66.0570   93.9836   12.6487 C.ar    1  UNL1        0.1012
     19 C          63.2747   91.0214   12.2824 C.3     1  UNL1        0.1205
     20 C          62.2867   89.9771   11.8544 C.ar    1  UNL1        0.0007
     21 C          60.8175   90.2785   11.8820 C.ar    1  UNL1       -0.0024
     22 C          59.8294   89.2341   11.4539 C.ar    1  UNL1        0.0028
     23 C          60.3107   87.8884   10.9984 C.ar    1  UNL1        0.0369
     24 C          61.7798   87.5871   10.9708 C.ar    1  UNL1        0.1381
     25 C          62.7678   88.6314   11.3988 C.ar    1  UNL1        0.0343
     26 O          62.2610   86.2413   10.5152 O.3     1  UNL1       -0.4792
     27 C          62.0345   85.8041    9.0983 C.3     1  UNL1        0.1659
     28 C          60.7697   85.9829    8.3119 C.3     1  UNL1        0.0435
     29 C          60.9866   85.4006    6.9466 C.3     1  UNL1        0.0038
     30 C          62.3854   84.8620    6.8893 C.3     1  UNL1        0.0038
     31 C          63.0330   85.1114    8.2191 C.3     1  UNL1        0.0435
@<TRIPOS>BOND
     1    13    14    1
     2    14    15   ar
     3    15    16   ar
     4    16    17   ar
     5    17     1    1
     6     1     2    2
     7     1     3   am
     8     3    19    1
     9    19    20    1
    10    20    21   ar
    11    21    22   ar
    12    22    23   ar
    13    23    24   ar
    14    24    26    1
    15    26    27    1
    16    27    28    1
    17    28    29    1
    18    29    30    1
    19    30    31    1
    20    24    25   ar
    21     4     3    1
    22     4     5    1
    23     6     5    1
    24     6     7    1
    25     7     8    1
    26     8     9    1
    27    10     9    1
    28    10    11    1
    29    17    18   ar
    30    18    14   ar
    31    25    20   ar
    32    11     4    1
    33    31    27    1
    34    10     6    1
    35     8    12    1
@<TRIPOS>MOLECULE
*****
 31 35 0 0 0
SMALL
GASTEIGER

@<TRIPOS>ATOM
      1 C          65.4142   91.0926   13.9228 C.2     1  UNL1        0.2685
      2 O          66.8846   91.2845   14.1488 O.2     1  UNL1       -0.2682
      3 N          64.7405   91.7603   12.7608 N.am    1  UNL1       -0.2723
      4 C          65.5372   92.6199   11.8248 C.3     1  UNL1        0.0761
      5 C          65.6793   94.1112   11.9023 C.3     1  UNL1        0.0213
      6 C          66.5617   94.5521   10.7722 C.3     1  UNL1        0.0188
      7 C          67.1948   95.7463   10.1218 C.3     1  UNL1        0.0686
      8 N          67.9893   95.2656    8.9438 N.3     1  UNL1       -0.2975
      9 C          67.8473   93.7743    8.8662 C.3     1  UNL1        0.0686
     10 C          66.9649   93.3334    9.9963 C.3     1  UNL1        0.0188
     11 C          66.3318   92.1392   10.6467 C.3     1  UNL1        0.0213
     12 H          68.9713   95.5140    9.0640 H       1  UNL1        0.1232
     13 C          63.3463   86.8773   16.3387 C.3     1  UNL1        0.1321
     14 N          63.6670   88.2954   15.9694 N.ar    1  UNL1       -0.3057
     15 C          63.1162   89.5245   16.6295 C.ar    1  UNL1        0.1787
     16 N          63.7036   90.7220   15.9432 N.ar    1  UNL1       -0.2192
     17 C          64.6175   90.2329   14.8590 C.ar    1  UNL1        0.1535
     18 C          64.5949   88.7332   14.8751 C.ar    1  UNL1        0.1012
     19 C          63.2701   91.5683   12.5349 C.3     1  UNL1        0.1205
     20 C          62.7870   90.4748   11.6289 C.ar    1  UNL1        0.0007
     21 C          62.6644   90.7217   10.1545 C.ar    1  UNL1       -0.0024
     22 C          62.1813   89.6281    9.2484 C.ar    1  UNL1        0.0028
     23 C          61.8209   88.2876    9.8170 C.ar    1  UNL1        0.0369
     24 C          61.9435   88.0408   11.2914 C.ar    1  UNL1        0.1381
     25 C          62.4265   89.1343   12.1974 C.ar    1  UNL1        0.0343
     26 O          61.5830   86.7002   11.8600 O.3     1  UNL1       -0.4792
     27 C          62.4614   85.5132   11.5967 C.3     1  UNL1        0.1659
     28 C          63.2185   84.7304   12.6284 C.3     1  UNL1        0.0435
     29 C          63.9620   83.6340   11.9249 C.3     1  UNL1        0.0038
     30 C          63.6644   83.7390   10.4584 C.3     1  UNL1        0.0038
     31 C          62.7371   84.9005   10.2556 C.3     1  UNL1        0.0435
@<TRIPOS>BOND
     1    13    14    1
     2    14    15   ar
     3    15    16   ar
     4    16    17   ar
     5    17     1    1
     6     1     2    2
     7     1     3   am
     8     3    19    1
     9    19    20    1
    10    20    21   ar
    11    21    22   ar
    12    22    23   ar
    13    23    24   ar
    14    24    26    1
    15    26    27    1
    16    27    28    1
    17    28    29    1
    18    29    30    1
    19    30    31    1
    20    24    25   ar
    21     4     3    1
    22     4     5    1
    23     6     5    1
    24     6     7    1
    25     7     8    1
    26     8     9    1
    27    10     9    1
    28    10    11    1
    29    17    18   ar
    30    18    14   ar
    31    25    20   ar
    32    11     4    1
    33    31    27    1
    34    10     6    1
    35     8    12    1
@<TRIPOS>MOLECULE
*****
 31 35 0 0 0
SMALL
GASTEIGER

@<TRIPOS>ATOM
      1 C          62.6849   84.3105   13.9425 C.2     1  UNL1        0.2685
      2 O          62.2985   84.8978   15.2676 O.2     1  UNL1       -0.2682
      3 N          63.3023   85.1804   12.8880 N.am    1  UNL1       -0.2723
      4 C          63.5332   86.6376   13.1585 C.3     1  UNL1        0.0761
      5 C          63.0589   87.7783   12.3077 C.3     1  UNL1        0.0213
      6 C          63.5117   89.0557   12.9507 C.3     1  UNL1        0.0188
      7 C          63.4983   90.5501   12.8222 C.3     1  UNL1        0.0686
      8 N          64.2442   91.1224   13.9910 N.3     1  UNL1       -0.2975
      9 C          64.7185   89.9817   14.8418 C.3     1  UNL1        0.0686
     10 C          64.2658   88.7044   14.1989 C.3     1  UNL1        0.0188
     11 C          64.2791   87.2100   14.3273 C.3     1  UNL1        0.0213
     12 H          63.6264   91.7257   14.5340 H       1  UNL1        0.1232
     13 C          62.7878   79.5477   11.6653 C.3     1  UNL1        0.1321
     14 N          62.5012   80.6640   12.6254 N.ar    1  UNL1       -0.3057
     15 C          61.6957   80.5577   13.8862 C.ar    1  UNL1        0.1787
     16 N          61.6665   81.9107   14.5331 N.ar    1  UNL1       -0.2192
     17 C          62.4539   82.8532   13.6720 C.ar    1  UNL1        0.1535
     18 C          62.9698   82.0828   12.4930 C.ar    1  UNL1        0.1012
     19 C          63.6886   84.5931   11.5629 C.3     1  UNL1        0.1205
     20 C          62.9511   84.9958   10.3204 C.ar    1  UNL1        0.0007
     21 C          63.4261   84.5211    8.9791 C.ar    1  UNL1       -0.0024
     22 C          62.6885   84.9238    7.7365 C.ar    1  UNL1        0.0028
     23 C          61.4758   85.8012    7.8355 C.ar    1  UNL1        0.0369
     24 C          61.0008   86.2758    9.1767 C.ar    1  UNL1        0.1381
     25 C          61.7384   85.8731   10.4192 C.ar    1  UNL1        0.0343
     26 O          59.7881   87.1532    9.2756 O.3     1  UNL1       -0.4792
     27 C          59.8195   88.3817   10.1356 C.3     1  UNL1        0.1659
     28 C          60.3302   89.7315    9.7266 C.3     1  UNL1        0.0435
     29 C          60.1720   90.6602   10.8938 C.3     1  UNL1        0.0038
     30 C          59.5635   89.8844   12.0242 C.3     1  UNL1        0.0038
     31 C          59.3457   88.4762   11.5556 C.3     1  UNL1        0.0435
@<TRIPOS>BOND
     1    13    14    1
     2    14    15   ar
     3    15    16   ar
     4    16    17   ar
     5    17     1    1
     6     1     2    2
     7     1     3   am
     8     3    19    1
     9    19    20    1
    10    20    21   ar
    11    21    22   ar
    12    22    23   ar
    13    23    24   ar
    14    24    26    1
    15    26    27    1
    16    27    28    1
    17    28    29    1
    18    29    30    1
    19    30    31    1
    20    24    25   ar
    21     4     3    1
    22     4     5    1
    23     6     5    1
    24     6     7    1
    25     7     8    1
    26     8     9    1
    27    10     9    1
    28    10    11    1
    29    17    18   ar
    30    18    14   ar
    31    25    20   ar
    32    11     4    1
    33    31    27    1
    34    10     6    1
    35     8    12    1
@<TRIPOS>MOLECULE
*****
 31 35 0 0 0
SMALL
GASTEIGER

@<TRIPOS>ATOM
      1 C          63.8877   90.8116   12.3561 C.2     1  UNL1        0.2685
      2 O          64.8498   91.3785   11.3547 O.2     1  UNL1       -0.2682
      3 N          64.2018   90.8821   13.8212 N.am    1  UNL1       -0.2723
      4 C          65.4779   91.5195   14.2847 C.3     1  UNL1        0.0761
      5 C          66.8066   91.4372   13.5933 C.3     1  UNL1        0.0213
      6 C          67.7994   92.2180   14.4024 C.3     1  UNL1        0.0188
      7 C          69.2341   92.6497   14.4751 C.3     1  UNL1        0.0686
      8 N          69.4058   93.4814   15.7116 N.3     1  UNL1       -0.2975
      9 C          68.0772   93.5637   16.4030 C.3     1  UNL1        0.0686
     10 C          67.0844   92.7829   15.5939 C.3     1  UNL1        0.0188
     11 C          65.6497   92.3512   15.5212 C.3     1  UNL1        0.0213
     12 H          69.7226   94.4172   15.4580 H       1  UNL1        0.1232
     13 C          60.4252   87.3018   10.4659 C.3     1  UNL1        0.1321
     14 N          61.0199   88.5609   11.0236 N.ar    1  UNL1       -0.3057
     15 C          60.2754   89.8254   11.3343 C.ar    1  UNL1        0.1787
     16 N          61.2591   90.8224   11.8712 N.ar    1  UNL1       -0.2192
     17 C          62.6115   90.1741   11.8925 C.ar    1  UNL1        0.1535
     18 C          62.4637   88.7763   11.3686 C.ar    1  UNL1        0.1012
     19 C          63.2396   90.3152   14.8226 C.3     1  UNL1        0.1205
     20 C          63.4304   88.9200   15.3394 C.ar    1  UNL1        0.0007
     21 C          62.9620   88.5604   16.7183 C.ar    1  UNL1       -0.0024
     22 C          63.1529   87.1651   17.2351 C.ar    1  UNL1        0.0028
     23 C          63.8121   86.1297   16.3730 C.ar    1  UNL1        0.0369
     24 C          64.2805   86.4893   14.9942 C.ar    1  UNL1        0.1381
     25 C          64.0896   87.8845   14.4774 C.ar    1  UNL1        0.0343
     26 O          64.9397   85.4538   14.1320 O.3     1  UNL1       -0.4792
     27 C          64.1334   84.3187   13.5742 C.3     1  UNL1        0.1659
     28 C          63.4742   84.2837   12.2272 C.3     1  UNL1        0.0435
     29 C          62.7781   82.9626   12.0858 C.3     1  UNL1        0.0038
     30 C          63.0071   82.1810   13.3454 C.3     1  UNL1        0.0038
     31 C          63.8447   83.0190   14.2653 C.3     1  UNL1        0.0435
@<TRIPOS>BOND
     1    13    14    1
     2    14    15   ar
     3    15    16   ar
     4    16    17   ar
     5    17     1    1
     6     1     2    2
     7     1     3   am
     8     3    19    1
     9    19    20    1
    10    20    21   ar
    11    21    22   ar
    12    22    23   ar
    13    23    24   ar
    14    24    26    1
    15    26    27    1
    16    27    28    1
    17    28    29    1
    18    29    30    1
    19    30    31    1
    20    24    25   ar
    21     4     3    1
    22     4     5    1
    23     6     5    1
    24     6     7    1
    25     7     8    1
    26     8     9    1
    27    10     9    1
    28    10    11    1
    29    17    18   ar
    30    18    14   ar
    31    25    20   ar
    32    11     4    1
    33    31    27    1
    34    10     6    1
    35     8    12    1
@<TRIPOS>MOLECULE
*****
 31 35 0 0 0
SMALL
GASTEIGER

@<TRIPOS>ATOM
      1 C          63.5161   90.8700   11.5411 C.2     1  UNL1        0.2685
      2 O          64.3401   91.8955   10.8203 O.2     1  UNL1       -0.2682
      3 N          63.8722   90.4722   12.9428 N.am    1  UNL1       -0.2723
      4 C          65.0521   91.0997   13.6238 C.3     1  UNL1        0.0761
      5 C          65.1393   91.4681   15.0753 C.3     1  UNL1        0.0213
      6 C          66.4931   92.0652   15.3215 C.3     1  UNL1        0.0188
      7 C          67.3837   92.6618   16.3707 C.3     1  UNL1        0.0686
      8 N          68.6837   93.0311   15.7198 N.3     1  UNL1       -0.2975
      9 C          68.5966   92.6627   14.2684 C.3     1  UNL1        0.0686
     10 C          67.2427   92.0657   14.0222 C.3     1  UNL1        0.0188
     11 C          66.3521   91.4690   12.9730 C.3     1  UNL1        0.0213
     12 H          69.4489   92.5211   16.1611 H       1  UNL1        0.1232
     13 C          60.5214   87.5636    8.7162 C.3     1  UNL1        0.1321
     14 N          60.9596   88.7227    9.5615 N.ar    1  UNL1       -0.3057
     15 C          60.0813   89.8308   10.0622 C.ar    1  UNL1        0.1787
     16 N          60.9321   90.7700   10.8646 N.ar    1  UNL1       -0.2192
     17 C          62.3361   90.2425   10.8600 C.ar    1  UNL1        0.1535
     18 C          62.3532   88.9771   10.0546 C.ar    1  UNL1        0.1012
     19 C          63.0481   89.4466   13.6635 C.3     1  UNL1        0.1205
     20 C          63.5567   88.0430   13.8087 C.ar    1  UNL1        0.0007
     21 C          64.5381   87.7092   14.8929 C.ar    1  UNL1       -0.0024
     22 C          65.0467   86.3055   15.0380 C.ar    1  UNL1        0.0028
     23 C          64.5739   85.2357   14.0988 C.ar    1  UNL1        0.0369
     24 C          63.5925   85.5695   13.0147 C.ar    1  UNL1        0.1381
     25 C          63.0839   86.9731   12.8696 C.ar    1  UNL1        0.0343
     26 O          63.1197   84.4996   12.0756 O.3     1  UNL1       -0.4792
     27 C          62.8238   83.1236   12.5943 C.3     1  UNL1        0.1659
     28 C          63.0492   81.8364   11.8579 C.3     1  UNL1        0.0435
     29 C          62.6152   80.7105   12.7489 C.3     1  UNL1        0.0038
     30 C          62.1216   81.3018   14.0360 C.3     1  UNL1        0.0038
     31 C          62.2504   82.7932   13.9404 C.3     1  UNL1        0.0435
@<TRIPOS>BOND
     1    13    14    1
     2    14    15   ar
     3    15    16   ar
     4    16    17   ar
     5    17     1    1
     6     1     2    2
     7     1     3   am
     8     3    19    1
     9    19    20    1
    10    20    21   ar
    11    21    22   ar
    12    22    23   ar
    13    23    24   ar
    14    24    26    1
    15    26    27    1
    16    27    28    1
    17    28    29    1
    18    29    30    1
    19    30    31    1
    20    24    25   ar
    21     4     3    1
    22     4     5    1
    23     6     5    1
    24     6     7    1
    25     7     8    1
    26     8     9    1
    27    10     9    1
    28    10    11    1
    29    17    18   ar
    30    18    14   ar
    31    25    20   ar
    32    11     4    1
    33    31    27    1
    34    10     6    1
    35     8    12    1
@<TRIPOS>MOLECULE
*****
 31 35 0 0 0
SMALL
GASTEIGER

@<TRIPOS>ATOM
      1 C          63.4094   90.4290   11.4912 C.2     1  UNL1        0.2685
      2 O          63.3255   90.9716   10.0953 O.2     1  UNL1       -0.2682
      3 N          62.7290   89.1375   11.8360 N.am    1  UNL1       -0.2723
      4 C          61.9646   88.3886   10.7850 C.3     1  UNL1        0.0761
      5 C          62.5426   87.4186    9.7975 C.3     1  UNL1        0.0213
      6 C          61.4232   86.9086    8.9391 C.3     1  UNL1        0.0188
      7 C          61.0887   85.9939    7.7983 C.3     1  UNL1        0.0686
      8 N          59.6121   86.0835    7.5502 N.3     1  UNL1       -0.2975
      9 C          59.0340   87.0534    8.5376 C.3     1  UNL1        0.0686
     10 C          60.1534   87.5634    9.3960 C.3     1  UNL1        0.0188
     11 C          60.4880   88.4781   10.5369 C.3     1  UNL1        0.0213
     12 H          59.1839   85.1661    7.6748 H       1  UNL1        0.1232
     13 C          66.8110   93.7102   13.8458 C.3     1  UNL1        0.1321
     14 N          65.7374   92.6862   13.6245 N.ar    1  UNL1       -0.3057
     15 C          64.9631   91.9752   14.6945 C.ar    1  UNL1        0.1787
     16 N          63.9968   91.0431   14.0256 N.ar    1  UNL1       -0.2192
     17 C          64.1739   91.1781   12.5423 C.ar    1  UNL1        0.1535
     18 C          65.2496   92.1936   12.2943 C.ar    1  UNL1        0.1012
     19 C          62.8130   88.5950   13.2320 C.3     1  UNL1        0.1205
     20 C          63.4652   87.2677   13.4828 C.ar    1  UNL1        0.0007
     21 C          64.4861   87.1277   14.5728 C.ar    1  UNL1       -0.0024
     22 C          65.1384   85.8003   14.8235 C.ar    1  UNL1        0.0028
     23 C          64.7697   84.6131   13.9841 C.ar    1  UNL1        0.0369
     24 C          63.7489   84.7531   12.8942 C.ar    1  UNL1        0.1381
     25 C          63.0966   86.0804   12.6434 C.ar    1  UNL1        0.0343
     26 O          63.3802   83.5658   12.0548 O.3     1  UNL1       -0.4792
     27 C          62.8094   82.3386   12.7013 C.3     1  UNL1        0.1659
     28 C          62.0678   82.2922   14.0044 C.3     1  UNL1        0.0435
     29 C          61.6801   80.8672   14.2667 C.3     1  UNL1        0.0038
     30 C          62.1819   80.0327   13.1257 C.3     1  UNL1        0.0038
     31 C          62.8799   80.9421   12.1582 C.3     1  UNL1        0.0435
@<TRIPOS>BOND
     1    13    14    1
     2    14    15   ar
     3    15    16   ar
     4    16    17   ar
     5    17     1    1
     6     1     2    2
     7     1     3   am
     8     3    19    1
     9    19    20    1
    10    20    21   ar
    11    21    22   ar
    12    22    23   ar
    13    23    24   ar
    14    24    26    1
    15    26    27    1
    16    27    28    1
    17    28    29    1
    18    29    30    1
    19    30    31    1
    20    24    25   ar
    21     4     3    1
    22     4     5    1
    23     6     5    1
    24     6     7    1
    25     7     8    1
    26     8     9    1
    27    10     9    1
    28    10    11    1
    29    17    18   ar
    30    18    14   ar
    31    25    20   ar
    32    11     4    1
    33    31    27    1
    34    10     6    1
    35     8    12    1
@<TRIPOS>MOLECULE
*****
 31 35 0 0 0
SMALL
GASTEIGER

@<TRIPOS>ATOM
      1 C          62.0028   86.8740   11.7099 C.2     1  UNL1        0.2685
      2 O          60.8664   86.1566   11.0436 O.2     1  UNL1       -0.2682
      3 N          62.9967   86.1061   12.5299 N.am    1  UNL1       -0.2723
      4 C          62.8543   84.6209   12.6836 C.3     1  UNL1        0.0761
      5 C          62.4143   83.9009   13.9238 C.3     1  UNL1        0.0213
      6 C          62.4150   82.4298   13.6308 C.3     1  UNL1        0.0188
      7 C          62.1434   81.0757   14.2162 C.3     1  UNL1        0.0686
      8 N          62.4160   80.0496   13.1567 N.3     1  UNL1       -0.2975
      9 C          62.8560   80.7694   11.9164 C.3     1  UNL1        0.0686
     10 C          62.8554   82.2405   12.2094 C.3     1  UNL1        0.0188
     11 C          63.1269   83.5946   11.6240 C.3     1  UNL1        0.0213
     12 H          61.5679   79.5163   12.9649 H       1  UNL1        0.1232
     13 C          63.5480   91.6186    9.9831 C.3     1  UNL1        0.1321
     14 N          62.8554   90.5401   10.7625 N.ar    1  UNL1       -0.3057
     15 C          61.8732   90.7496   11.8765 C.ar    1  UNL1        0.1787
     16 N          61.4342   89.4018   12.3671 N.ar    1  UNL1       -0.2192
     17 C          62.1451   88.3593   11.5562 C.ar    1  UNL1        0.1535
     18 C          63.0235   89.0628   10.5644 C.ar    1  UNL1        0.1012
     19 C          64.1331   86.8236   13.1962 C.3     1  UNL1        0.1205
     20 C          63.8722   87.7016   14.3840 C.ar    1  UNL1        0.0007
     21 C          63.3022   87.1134   15.6407 C.ar    1  UNL1       -0.0024
     22 C          63.0413   87.9915   16.8286 C.ar    1  UNL1        0.0028
     23 C          63.3504   89.4577   16.7596 C.ar    1  UNL1        0.0369
     24 C          63.9203   90.0458   15.5031 C.ar    1  UNL1        0.1381
     25 C          64.1813   89.1678   14.3152 C.ar    1  UNL1        0.0343
     26 O          64.2295   91.5121   15.4342 O.3     1  UNL1       -0.4792
     27 C          65.6502   91.9734   15.2979 C.3     1  UNL1        0.1659
     28 C          66.5167   91.8131   14.0839 C.3     1  UNL1        0.0435
     29 C          67.8560   92.4166   14.3873 C.3     1  UNL1        0.0038
     30 C          67.8173   92.9498   15.7888 C.3     1  UNL1        0.0038
     31 C          66.4541   92.6759   16.3516 C.3     1  UNL1        0.0435
@<TRIPOS>BOND
     1    13    14    1
     2    14    15   ar
     3    15    16   ar
     4    16    17   ar
     5    17     1    1
     6     1     2    2
     7     1     3   am
     8     3    19    1
     9    19    20    1
    10    20    21   ar
    11    21    22   ar
    12    22    23   ar
    13    23    24   ar
    14    24    26    1
    15    26    27    1
    16    27    28    1
    17    28    29    1
    18    29    30    1
    19    30    31    1
    20    24    25   ar
    21     4     3    1
    22     4     5    1
    23     6     5    1
    24     6     7    1
    25     7     8    1
    26     8     9    1
    27    10     9    1
    28    10    11    1
    29    17    18   ar
    30    18    14   ar
    31    25    20   ar
    32    11     4    1
    33    31    27    1
    34    10     6    1
    35     8    12    1
