@<TRIPOS>MOLECULE
*****
 26 28 0 0 0
SMALL
GASTEIGER

@<TRIPOS>ATOM
      1 C          61.9451   88.2741   11.2496 C.2     1  UNL1        0.0936
      2 C          61.8842   89.7065   10.8084 C.2     1  UNL1        0.1201
      3 O          60.9229   90.1200    9.7337 O.2     1  UNL1       -0.5092
      4 C          62.7846   90.7253   11.4417 C.3     1  UNL1        0.0691
      5 C          63.7459   90.3119   12.5164 C.3     1  UNL1        0.0392
      6 C          63.8069   88.8796   12.9577 C.3     1  UNL1        0.0746
      7 C          62.9064   87.8606   12.3243 C.2     1  UNL1        0.1819
      8 O          62.9674   86.4284   12.7655 O.2     1  UNL1       -0.2907
      9 H          60.3604   89.4835    9.3380 H       1  UNL1        0.2917
     10 C          64.6463   91.3307   13.1498 C.ar    1  UNL1       -0.0005
     11 C          65.3914   92.3099   12.2918 C.ar    1  UNL1        0.0545
     12 CL         65.2359   92.2702   10.8004 Cl      1  UNL1       -0.0825
     13 C          66.2918   93.3287   12.9251 C.ar    1  UNL1        0.0111
     14 C          66.4472   93.3684   14.4165 C.ar    1  UNL1        0.0017
     15 C          65.7022   92.3893   15.2746 C.ar    1  UNL1        0.0111
     16 C          64.8017   91.3704   14.6412 C.ar    1  UNL1        0.0545
     17 CL         64.0568   90.3912   15.4992 Cl      1  UNL1       -0.0825
     18 S          61.0447   87.2553   10.6162 S.3     1  UNL1       -0.0807
     19 C          60.8819   86.3466    8.1876 C.ar    1  UNL1        0.0744
     20 C          61.4028   85.4620    7.0940 C.ar    1  UNL1        0.0108
     21 C          62.6074   84.6014    7.3353 C.ar    1  UNL1        0.0007
     22 C          63.2911   84.6254    8.6702 C.ar    1  UNL1        0.0006
     23 C          62.7702   85.5100    9.7638 C.ar    1  UNL1        0.0072
     24 C          61.5656   86.3706    9.5225 C.ar    1  UNL1        0.0392
     25 N          58.4727   88.0679    7.7051 N.1     1  UNL1       -0.1908
     26 C          59.6773   87.2073    7.9464 C.1     1  UNL1        0.1009
@<TRIPOS>BOND
     1    25    26    3
     2    26    19    1
     3    19    20   ar
     4    20    21   ar
     5    21    22   ar
     6    22    23   ar
     7    23    24   ar
     8    24    18    1
     9    18     1    1
    10     1     2    2
    11     2     3    1
    12     2     4    1
    13     4     5    1
    14     5    10    1
    15    10    11   ar
    16    11    12    1
    17    11    13   ar
    18    13    14   ar
    19    14    15   ar
    20    15    16   ar
    21    16    17    1
    22     5     6    1
    23     6     7    1
    24     7     8    2
    25    24    19   ar
    26     7     1    1
    27    16    10   ar
    28     3     9    1
@<TRIPOS>MOLECULE
*****
 26 28 0 0 0
SMALL
GASTEIGER

@<TRIPOS>ATOM
      1 C          61.9288   88.1516   11.3717 C.2     1  UNL1        0.0936
      2 C          62.9292   87.7212   12.4032 C.2     1  UNL1        0.1201
      3 O          63.0433   86.2736   12.7791 O.2     1  UNL1       -0.5092
      4 C          63.8154   88.7384   13.0588 C.3     1  UNL1        0.0691
      5 C          63.7013   90.1861   12.6830 C.3     1  UNL1        0.0392
      6 C          62.7010   90.6165   11.6515 C.3     1  UNL1        0.0746
      7 C          61.8147   89.5993   10.9958 C.2     1  UNL1        0.1819
      8 O          60.8143   90.0298    9.9644 O.2     1  UNL1       -0.2907
      9 H          62.4897   85.6381   12.3695 H       1  UNL1        0.2917
     10 C          64.5876   91.2033   13.3386 C.ar    1  UNL1       -0.0005
     11 C          64.7046   91.2438   14.8335 C.ar    1  UNL1        0.0545
     12 CL         63.9353   90.2671   15.6727 Cl      1  UNL1       -0.0825
     13 C          65.5908   92.2610   15.4891 C.ar    1  UNL1        0.0111
     14 C          66.3601   93.2377   14.6498 C.ar    1  UNL1        0.0017
     15 C          66.2431   93.1972   13.1550 C.ar    1  UNL1        0.0111
     16 C          65.3568   92.1799   12.4993 C.ar    1  UNL1        0.0545
     17 CL         65.2398   92.1394   11.0045 Cl      1  UNL1       -0.0825
     18 S          61.0426   87.1345   10.7161 S.3     1  UNL1       -0.0807
     19 C          60.8997   86.3086    8.2569 C.ar    1  UNL1        0.0744
     20 C          61.4299   85.4618    7.1381 C.ar    1  UNL1        0.0108
     21 C          62.6332   84.5941    7.3596 C.ar    1  UNL1        0.0007
     22 C          63.3063   84.5731    8.6999 C.ar    1  UNL1        0.0006
     23 C          62.7761   85.4199    9.8187 C.ar    1  UNL1        0.0072
     24 C          61.5728   86.2876    9.5972 C.ar    1  UNL1        0.0392
     25 N          58.4930   88.0441    7.8139 N.1     1  UNL1       -0.1908
     26 C          59.6964   87.1763    8.0354 C.1     1  UNL1        0.1009
@<TRIPOS>BOND
     1    25    26    3
     2    26    19    1
     3    19    20   ar
     4    20    21   ar
     5    21    22   ar
     6    22    23   ar
     7    23    24   ar
     8    24    18    1
     9    18     1    1
    10     1     2    2
    11     2     3    1
    12     2     4    1
    13     4     5    1
    14     5    10    1
    15    10    11   ar
    16    11    12    1
    17    11    13   ar
    18    13    14   ar
    19    14    15   ar
    20    15    16   ar
    21    16    17    1
    22     5     6    1
    23     6     7    1
    24     7     8    2
    25    24    19   ar
    26     7     1    1
    27    16    10   ar
    28     3     9    1
@<TRIPOS>MOLECULE
*****
 26 28 0 0 0
SMALL
GASTEIGER

@<TRIPOS>ATOM
      1 C          62.5250   88.4152   11.7755 C.2     1  UNL1        0.0936
      2 C          63.4828   88.2922   12.9234 C.2     1  UNL1        0.1201
      3 O          63.5995   86.9947   13.6670 O.2     1  UNL1       -0.5092
      4 C          64.3239   89.4665   13.3275 C.3     1  UNL1        0.0691
      5 C          64.2072   90.7640   12.5838 C.3     1  UNL1        0.0392
      6 C          63.2495   90.8870   11.4360 C.3     1  UNL1        0.0746
      7 C          62.4083   89.7126   11.0318 C.2     1  UNL1        0.1819
      8 O          61.4506   89.8357    9.8840 O.2     1  UNL1       -0.2907
      9 H          63.0741   86.2611   13.4146 H       1  UNL1        0.2917
     10 C          65.0483   91.9383   12.9880 C.ar    1  UNL1       -0.0005
     11 C          65.5364   92.9042   11.9492 C.ar    1  UNL1        0.0545
     12 CL         65.1833   92.6957   10.5063 Cl      1  UNL1       -0.0825
     13 C          66.3774   94.0786   12.3533 C.ar    1  UNL1        0.0111
     14 C          66.7305   94.2872   13.7962 C.ar    1  UNL1        0.0017
     15 C          66.2425   93.3214   14.8349 C.ar    1  UNL1        0.0111
     16 C          65.4014   92.1469   14.4308 C.ar    1  UNL1        0.0545
     17 CL         64.9134   91.1811   15.4695 Cl      1  UNL1       -0.0825
     18 S          61.6839   87.2408   11.3713 S.3     1  UNL1       -0.0807
     19 C          62.6926   84.8577   11.1397 C.ar    1  UNL1        0.0744
     20 C          63.2798   83.7730   10.2862 C.ar    1  UNL1        0.0108
     21 C          63.4455   83.9865    8.8108 C.ar    1  UNL1        0.0007
     22 C          63.0240   85.2848    8.1888 C.ar    1  UNL1        0.0006
     23 C          62.4369   86.3695    9.0424 C.ar    1  UNL1        0.0072
     24 C          62.2711   86.1560   10.5178 C.ar    1  UNL1        0.0392
     25 N          62.3611   84.4306   14.0906 N.1     1  UNL1       -0.1908
     26 C          62.5268   84.6442   12.6152 C.1     1  UNL1        0.1009
@<TRIPOS>BOND
     1    25    26    3
     2    26    19    1
     3    19    20   ar
     4    20    21   ar
     5    21    22   ar
     6    22    23   ar
     7    23    24   ar
     8    24    18    1
     9    18     1    1
    10     1     2    2
    11     2     3    1
    12     2     4    1
    13     4     5    1
    14     5    10    1
    15    10    11   ar
    16    11    12    1
    17    11    13   ar
    18    13    14   ar
    19    14    15   ar
    20    15    16   ar
    21    16    17    1
    22     5     6    1
    23     6     7    1
    24     7     8    2
    25    24    19   ar
    26     7     1    1
    27    16    10   ar
    28     3     9    1
@<TRIPOS>MOLECULE
*****
 26 28 0 0 0
SMALL
GASTEIGER

@<TRIPOS>ATOM
      1 C          62.5359   88.4080   11.8290 C.2     1  UNL1        0.0936
      2 C          63.4958   88.2932   12.9761 C.2     1  UNL1        0.1201
      3 O          63.6151   87.0005   13.7275 O.2     1  UNL1       -0.5092
      4 C          64.3361   89.4710   13.3716 C.3     1  UNL1        0.0691
      5 C          64.2167   90.7637   12.6202 C.3     1  UNL1        0.0392
      6 C          63.2570   90.8786   11.4732 C.3     1  UNL1        0.0746
      7 C          62.4166   89.7007   11.0776 C.2     1  UNL1        0.1819
      8 O          61.4568   89.8156    9.9306 O.2     1  UNL1       -0.2907
      9 H          63.0902   86.2647   13.4804 H       1  UNL1        0.2917
     10 C          65.0570   91.9415   13.0157 C.ar    1  UNL1       -0.0005
     11 C          65.4072   92.1627   14.4575 C.ar    1  UNL1        0.0545
     12 CL         64.9169   91.2061   15.5036 Cl      1  UNL1       -0.0825
     13 C          66.2475   93.3406   14.8530 C.ar    1  UNL1        0.0111
     14 C          66.7378   94.2972   13.8069 C.ar    1  UNL1        0.0017
     15 C          66.3877   94.0761   12.3652 C.ar    1  UNL1        0.0111
     16 C          65.5473   92.8982   11.9696 C.ar    1  UNL1        0.0545
     17 CL         65.1973   92.6771   10.5279 Cl      1  UNL1       -0.0825
     18 S          61.6956   87.2302   11.4334 S.3     1  UNL1       -0.0807
     19 C          62.6989   84.8462   11.1891 C.ar    1  UNL1        0.0744
     20 C          63.2818   83.7639   10.3294 C.ar    1  UNL1        0.0108
     21 C          63.4441   83.9834    8.8545 C.ar    1  UNL1        0.0007
     22 C          63.0236   85.2852    8.2392 C.ar    1  UNL1        0.0006
     23 C          62.4408   86.3674    9.0988 C.ar    1  UNL1        0.0072
     24 C          62.2785   86.1479   10.5738 C.ar    1  UNL1        0.0392
     25 N          62.3743   84.4072   14.1390 N.1     1  UNL1       -0.1908
     26 C          62.5366   84.6267   12.6640 C.1     1  UNL1        0.1009
@<TRIPOS>BOND
     1    25    26    3
     2    26    19    1
     3    19    20   ar
     4    20    21   ar
     5    21    22   ar
     6    22    23   ar
     7    23    24   ar
     8    24    18    1
     9    18     1    1
    10     1     2    2
    11     2     3    1
    12     2     4    1
    13     4     5    1
    14     5    10    1
    15    10    11   ar
    16    11    12    1
    17    11    13   ar
    18    13    14   ar
    19    14    15   ar
    20    15    16   ar
    21    16    17    1
    22     5     6    1
    23     6     7    1
    24     7     8    2
    25    24    19   ar
    26     7     1    1
    27    16    10   ar
    28     3     9    1
@<TRIPOS>MOLECULE
*****
 26 28 0 0 0
SMALL
GASTEIGER

@<TRIPOS>ATOM
      1 C          61.6298   88.5700   11.7125 C.2     1  UNL1        0.0936
      2 C          62.8756   88.1210   12.4172 C.2     1  UNL1        0.1201
      3 O          63.0972   86.6634   12.6932 O.2     1  UNL1       -0.5092
      4 C          63.8997   89.1296   12.8459 C.3     1  UNL1        0.0691
      5 C          63.6781   90.5873   12.5699 C.3     1  UNL1        0.0392
      6 C          62.4324   91.0363   11.8652 C.3     1  UNL1        0.0746
      7 C          61.4082   90.0276   11.4365 C.2     1  UNL1        0.1819
      8 O          60.1625   90.4766   10.7318 O.2     1  UNL1       -0.2907
      9 H          62.4574   86.0333   12.4254 H       1  UNL1        0.2917
     10 C          64.7022   91.5959   12.9986 C.ar    1  UNL1       -0.0005
     11 C          65.3605   92.4766   11.9782 C.ar    1  UNL1        0.0545
     12 CL         64.9946   92.3486   10.5291 Cl      1  UNL1       -0.0825
     13 C          66.3846   93.4853   12.4068 C.ar    1  UNL1        0.0111
     14 C          66.7504   93.6133   13.8559 C.ar    1  UNL1        0.0017
     15 C          66.0922   92.7327   14.8763 C.ar    1  UNL1        0.0111
     16 C          65.0680   91.7240   14.4476 C.ar    1  UNL1        0.0545
     17 CL         64.4098   90.8434   15.4680 Cl      1  UNL1       -0.0825
     18 S          60.6057   87.5613   11.2838 S.3     1  UNL1       -0.0807
     19 C          61.1752   86.1046    9.2093 C.ar    1  UNL1        0.0744
     20 C          60.9953   85.7906    7.7536 C.ar    1  UNL1        0.0108
     21 C          60.0661   86.6191    6.9168 C.ar    1  UNL1        0.0007
     22 C          59.3168   87.7616    7.5357 C.ar    1  UNL1        0.0006
     23 C          59.4967   88.0757    8.9913 C.ar    1  UNL1        0.0072
     24 C          60.4259   87.2472    9.8281 C.ar    1  UNL1        0.0392
     25 N          63.0335   84.4477   10.8829 N.1     1  UNL1       -0.1908
     26 C          62.1044   85.2762   10.0461 C.1     1  UNL1        0.1009
@<TRIPOS>BOND
     1    25    26    3
     2    26    19    1
     3    19    20   ar
     4    20    21   ar
     5    21    22   ar
     6    22    23   ar
     7    23    24   ar
     8    24    18    1
     9    18     1    1
    10     1     2    2
    11     2     3    1
    12     2     4    1
    13     4     5    1
    14     5    10    1
    15    10    11   ar
    16    11    12    1
    17    11    13   ar
    18    13    14   ar
    19    14    15   ar
    20    15    16   ar
    21    16    17    1
    22     5     6    1
    23     6     7    1
    24     7     8    2
    25    24    19   ar
    26     7     1    1
    27    16    10   ar
    28     3     9    1
@<TRIPOS>MOLECULE
*****
 26 28 0 0 0
SMALL
GASTEIGER

@<TRIPOS>ATOM
      1 C          62.9315   90.8322   12.0458 C.2     1  UNL1        0.0936
      2 C          63.9754   91.6746   11.3744 C.2     1  UNL1        0.1201
      3 O          63.7863   92.1104    9.9516 O.2     1  UNL1       -0.5092
      4 C          65.2082   92.0812   12.1258 C.3     1  UNL1        0.0691
      5 C          65.3973   91.6455   13.5486 C.3     1  UNL1        0.0392
      6 C          64.3535   90.8031   14.2200 C.3     1  UNL1        0.0746
      7 C          63.1205   90.3964   13.4686 C.2     1  UNL1        0.1819
      8 O          62.0767   89.5541   14.1400 O.2     1  UNL1       -0.2907
      9 H          63.0162   91.8564    9.4822 H       1  UNL1        0.2917
     10 C          66.6301   92.0521   14.3000 C.ar    1  UNL1       -0.0005
     11 C          66.5249   92.4990   15.7281 C.ar    1  UNL1        0.0545
     12 CL         65.1867   92.5392   16.4047 Cl      1  UNL1       -0.0825
     13 C          67.7577   92.9056   16.4795 C.ar    1  UNL1        0.0111
     14 C          69.0959   92.8653   15.8030 C.ar    1  UNL1        0.0017
     15 C          69.2012   92.4185   14.3750 C.ar    1  UNL1        0.0111
     16 C          67.9683   92.0118   13.6235 C.ar    1  UNL1        0.0545
     17 CL         68.0736   91.5650   12.1955 Cl      1  UNL1       -0.0825
     18 S          61.6986   90.4256   11.2944 S.3     1  UNL1       -0.0807
     19 C          60.4482   88.1539   11.1332 C.ar    1  UNL1        0.0744
     20 C          60.3375   86.7694   10.5669 C.ar    1  UNL1        0.0108
     21 C          61.3665   86.2719    9.5955 C.ar    1  UNL1        0.0007
     22 C          62.5062   87.1589    9.1904 C.ar    1  UNL1        0.0006
     23 C          62.6169   88.5435    9.7567 C.ar    1  UNL1        0.0072
     24 C          61.5879   89.0410   10.7281 C.ar    1  UNL1        0.0392
     25 N          58.3901   89.1489   13.0759 N.1     1  UNL1       -0.1908
     26 C          59.4191   88.6514   12.1045 C.1     1  UNL1        0.1009
@<TRIPOS>BOND
     1    25    26    3
     2    26    19    1
     3    19    20   ar
     4    20    21   ar
     5    21    22   ar
     6    22    23   ar
     7    23    24   ar
     8    24    18    1
     9    18     1    1
    10     1     2    2
    11     2     3    1
    12     2     4    1
    13     4     5    1
    14     5    10    1
    15    10    11   ar
    16    11    12    1
    17    11    13   ar
    18    13    14   ar
    19    14    15   ar
    20    15    16   ar
    21    16    17    1
    22     5     6    1
    23     6     7    1
    24     7     8    2
    25    24    19   ar
    26     7     1    1
    27    16    10   ar
    28     3     9    1
@<TRIPOS>MOLECULE
*****
 26 28 0 0 0
SMALL
GASTEIGER

@<TRIPOS>ATOM
      1 C          61.6995   88.5511   11.7348 C.2     1  UNL1        0.0936
      2 C          61.4682   90.0013   11.4289 C.2     1  UNL1        0.1201
      3 O          60.2280   90.4253   10.6993 O.2     1  UNL1       -0.5092
      4 C          62.4770   91.0273   11.8525 C.3     1  UNL1        0.0691
      5 C          63.7171   90.6032   12.5820 C.3     1  UNL1        0.0392
      6 C          63.9484   89.1531   12.8880 C.3     1  UNL1        0.0746
      7 C          62.9396   88.1270   12.4644 C.2     1  UNL1        0.1819
      8 O          63.1709   86.6769   12.7703 O.2     1  UNL1       -0.2907
      9 H          59.5979   89.7844   10.4347 H       1  UNL1        0.2917
     10 C          64.7259   91.6293   13.0056 C.ar    1  UNL1       -0.0005
     11 C          65.0904   91.7695   14.4540 C.ar    1  UNL1        0.0545
     12 CL         64.4460   90.8836   15.4786 Cl      1  UNL1       -0.0825
     13 C          66.0992   92.7955   14.8776 C.ar    1  UNL1        0.0111
     14 C          66.7436   93.6814   13.8529 C.ar    1  UNL1        0.0017
     15 C          66.3792   93.5412   12.4046 C.ar    1  UNL1        0.0111
     16 C          65.3704   92.5152   11.9810 C.ar    1  UNL1        0.0545
     17 CL         65.0060   92.3750   10.5327 Cl      1  UNL1       -0.0825
     18 S          60.6906   87.5250   11.3112 S.3     1  UNL1       -0.0807
     19 C          61.1878   86.1105    9.1894 C.ar    1  UNL1        0.0744
     20 C          60.9668   85.8331    7.7320 C.ar    1  UNL1        0.0108
     21 C          60.0276   86.6928    6.9389 C.ar    1  UNL1        0.0007
     22 C          59.3094   87.8298    7.6032 C.ar    1  UNL1        0.0006
     23 C          59.5305   88.1072    9.0606 C.ar    1  UNL1        0.0072
     24 C          60.4696   87.2476    9.8537 C.ar    1  UNL1        0.0392
     25 N          63.0661   84.3913   10.7756 N.1     1  UNL1       -0.1908
     26 C          62.1270   85.2509    9.9825 C.1     1  UNL1        0.1009
@<TRIPOS>BOND
     1    25    26    3
     2    26    19    1
     3    19    20   ar
     4    20    21   ar
     5    21    22   ar
     6    22    23   ar
     7    23    24   ar
     8    24    18    1
     9    18     1    1
    10     1     2    2
    11     2     3    1
    12     2     4    1
    13     4     5    1
    14     5    10    1
    15    10    11   ar
    16    11    12    1
    17    11    13   ar
    18    13    14   ar
    19    14    15   ar
    20    15    16   ar
    21    16    17    1
    22     5     6    1
    23     6     7    1
    24     7     8    2
    25    24    19   ar
    26     7     1    1
    27    16    10   ar
    28     3     9    1
@<TRIPOS>MOLECULE
*****
 26 28 0 0 0
SMALL
GASTEIGER

@<TRIPOS>ATOM
      1 C          63.2140   90.1575   12.2973 C.2     1  UNL1        0.0936
      2 C          63.9621   91.2770   11.6360 C.2     1  UNL1        0.1201
      3 O          63.5290   91.7759   10.2893 O.2     1  UNL1       -0.5092
      4 C          65.1433   91.8975   12.3214 C.3     1  UNL1        0.0691
      5 C          65.5764   91.3986   13.6680 C.3     1  UNL1        0.0392
      6 C          64.8284   90.2792   14.3293 C.3     1  UNL1        0.0746
      7 C          63.6472   89.6586   13.6439 C.2     1  UNL1        0.1819
      8 O          62.8992   88.5392   14.3052 O.2     1  UNL1       -0.2907
      9 H          62.7911   91.3883    9.8612 H       1  UNL1        0.2917
     10 C          66.7576   92.0191   14.3534 C.ar    1  UNL1       -0.0005
     11 C          68.0904   92.0542   13.6661 C.ar    1  UNL1        0.0545
     12 CL         68.2420   91.4688   12.2934 Cl      1  UNL1       -0.0825
     13 C          69.2716   92.6747   14.3514 C.ar    1  UNL1        0.0111
     14 C          69.1200   93.2602   15.7241 C.ar    1  UNL1        0.0017
     15 C          67.7872   93.2251   16.4115 C.ar    1  UNL1        0.0111
     16 C          66.6060   92.6045   15.7261 C.ar    1  UNL1        0.0545
     17 CL         65.2732   92.5695   16.4134 Cl      1  UNL1       -0.0825
     18 S          62.0329   89.5370   11.6119 S.3     1  UNL1       -0.0807
     19 C          61.4055   87.6699    9.9176 C.ar    1  UNL1        0.0744
     20 C          61.4558   86.2329    9.4906 C.ar    1  UNL1        0.0108
     21 C          62.1838   85.2259   10.3308 C.ar    1  UNL1        0.0007
     22 C          62.8615   85.6559   11.5980 C.ar    1  UNL1        0.0006
     23 C          62.8112   87.0929   12.0250 C.ar    1  UNL1        0.0072
     24 C          62.0832   88.0999   11.1848 C.ar    1  UNL1        0.0392
     25 N          59.9495   89.6840    8.2373 N.1     1  UNL1       -0.1908
     26 C          60.6775   88.6770    9.0775 C.1     1  UNL1        0.1009
@<TRIPOS>BOND
     1    25    26    3
     2    26    19    1
     3    19    20   ar
     4    20    21   ar
     5    21    22   ar
     6    22    23   ar
     7    23    24   ar
     8    24    18    1
     9    18     1    1
    10     1     2    2
    11     2     3    1
    12     2     4    1
    13     4     5    1
    14     5    10    1
    15    10    11   ar
    16    11    12    1
    17    11    13   ar
    18    13    14   ar
    19    14    15   ar
    20    15    16   ar
    21    16    17    1
    22     5     6    1
    23     6     7    1
    24     7     8    2
    25    24    19   ar
    26     7     1    1
    27    16    10   ar
    28     3     9    1
@<TRIPOS>MOLECULE
*****
 26 28 0 0 0
SMALL
GASTEIGER

@<TRIPOS>ATOM
      1 C          63.6285   87.3732   13.1314 C.2     1  UNL1        0.0936
      2 C          63.2354   85.9780   12.7455 C.2     1  UNL1        0.1201
      3 O          63.6486   84.8182   13.6024 O.2     1  UNL1       -0.5092
      4 C          62.4292   85.7425   11.5028 C.3     1  UNL1        0.0691
      5 C          62.0159   86.9022   10.6459 C.3     1  UNL1        0.0392
      6 C          62.4089   88.2974   11.0317 C.3     1  UNL1        0.0746
      7 C          63.2152   88.5329   12.2745 C.2     1  UNL1        0.1819
      8 O          63.6082   89.9281   12.6603 O.2     1  UNL1       -0.2907
      9 H          64.1523   84.9653   14.3787 H       1  UNL1        0.2917
     10 C          61.2097   86.6667    9.4031 C.ar    1  UNL1       -0.0005
     11 C          61.7536   85.7952    8.3101 C.ar    1  UNL1        0.0545
     12 CL         63.1038   85.1591    8.4599 Cl      1  UNL1       -0.0825
     13 C          60.9473   85.5597    7.0674 C.ar    1  UNL1        0.0111
     14 C          59.5971   86.1957    6.9176 C.ar    1  UNL1        0.0017
     15 C          59.0532   87.0672    8.0105 C.ar    1  UNL1        0.0111
     16 C          59.8595   87.3027    9.2533 C.ar    1  UNL1        0.0545
     17 CL         59.3155   88.1742   10.3463 Cl      1  UNL1       -0.0825
     18 S          64.4347   87.6087   14.3742 S.3     1  UNL1       -0.0807
     19 C          63.3571   88.4693   16.5760 C.ar    1  UNL1        0.0744
     20 C          62.7570   88.1938   17.9228 C.ar    1  UNL1        0.0108
     21 C          62.6343   86.7820   18.4146 C.ar    1  UNL1        0.0007
     22 C          63.1117   85.6458   17.5596 C.ar    1  UNL1        0.0006
     23 C          63.7119   85.9214   16.2128 C.ar    1  UNL1        0.0072
     24 C          63.8345   87.3331   15.7210 C.ar    1  UNL1        0.0392
     25 N          63.6025   91.2929   15.5925 N.1     1  UNL1       -0.1908
     26 C          63.4798   89.8811   16.0842 C.1     1  UNL1        0.1009
@<TRIPOS>BOND
     1    25    26    3
     2    26    19    1
     3    19    20   ar
     4    20    21   ar
     5    21    22   ar
     6    22    23   ar
     7    23    24   ar
     8    24    18    1
     9    18     1    1
    10     1     2    2
    11     2     3    1
    12     2     4    1
    13     4     5    1
    14     5    10    1
    15    10    11   ar
    16    11    12    1
    17    11    13   ar
    18    13    14   ar
    19    14    15   ar
    20    15    16   ar
    21    16    17    1
    22     5     6    1
    23     6     7    1
    24     7     8    2
    25    24    19   ar
    26     7     1    1
    27    16    10   ar
    28     3     9    1
