@<TRIPOS>MOLECULE
*****
 17 19 0 0 0
SMALL
GASTEIGER

@<TRIPOS>ATOM
      1 C          60.9352   87.2615    9.0388 C.3     1  UNL1        0.0347
      2 C          61.9840   87.8239    9.9519 C.3     1  UNL1        0.0054
      3 C          61.7503   89.3007   10.0719 C.3     1  UNL1        0.0004
      4 C          60.5572   89.6510    9.2331 C.3     1  UNL1        0.0017
      5 C          60.0534   88.3906    8.5946 C.3     1  UNL1        0.0208
      6 C          59.0046   87.8281    7.6815 C.3     1  UNL1        0.0689
      7 N          59.2382   86.3513    7.5614 N.3     1  UNL1       -0.2972
      8 C          60.4315   86.0011    8.4003 C.3     1  UNL1        0.0726
      9 H          59.4163   86.1070    6.5873 H       1  UNL1        0.1233
     10 CL         64.4624   82.7446   10.8154 Cl      1  UNL1       -0.0814
     11 C          63.5807   83.8738   10.3713 C.ar    1  UNL1        0.0682
     12 C          63.6190   84.3393    8.9459 C.ar    1  UNL1        0.0119
     13 C          62.7371   85.4685    8.5018 C.ar    1  UNL1       -0.0033
     14 C          61.8170   86.1322    9.4831 C.ar    1  UNL1       -0.0206
     15 C          61.7788   85.6667   10.9085 C.ar    1  UNL1        0.0080
     16 C          62.6605   84.5375   11.3526 C.ar    1  UNL1        0.0679
     17 CL         62.6222   84.0720   12.7780 Cl      1  UNL1       -0.0814
@<TRIPOS>BOND
     1    10    11    1
     2    11    12   ar
     3    12    13   ar
     4    13    14   ar
     5     1    14    1
     6     1     2    1
     7     2     3    1
     8     3     4    1
     9     5     4    1
    10     5     6    1
    11     6     7    1
    12     7     8    1
    13    14    15   ar
    14    15    16   ar
    15    16    17    1
    16    16    11   ar
    17     5     1    1
    18     8     1    1
    19     7     9    1
@<TRIPOS>MOLECULE
*****
 17 19 0 0 0
SMALL
GASTEIGER

@<TRIPOS>ATOM
      1 C          60.9975   87.3845    9.1732 C.3     1  UNL1        0.0347
      2 C          60.4818   86.1815    8.4405 C.3     1  UNL1        0.0054
      3 C          59.3151   86.6140    7.6028 C.3     1  UNL1        0.0004
      4 C          59.1097   88.0842    7.8178 C.3     1  UNL1        0.0017
      5 C          60.1495   88.5604    8.7884 C.3     1  UNL1        0.0208
      6 C          60.6652   89.7634    9.5211 C.3     1  UNL1        0.0689
      7 N          61.8320   89.3309   10.3589 N.3     1  UNL1       -0.2972
      8 C          62.0373   87.8606   10.1438 C.3     1  UNL1        0.0726
      9 H          61.6376   89.5129   11.3435 H       1  UNL1        0.1233
     10 CL         64.3896   82.6809   10.7125 Cl      1  UNL1       -0.0814
     11 C          63.5416   83.8567   10.3277 C.ar    1  UNL1        0.0682
     12 C          63.5776   84.3794    8.9222 C.ar    1  UNL1        0.0119
     13 C          62.7296   85.5554    8.5374 C.ar    1  UNL1       -0.0033
     14 C          61.8455   86.2085    9.5581 C.ar    1  UNL1       -0.0206
     15 C          61.8095   85.6858   10.9636 C.ar    1  UNL1        0.0080
     16 C          62.6575   84.5099   11.3484 C.ar    1  UNL1        0.0679
     17 CL         62.6215   83.9872   12.7539 Cl      1  UNL1       -0.0814
@<TRIPOS>BOND
     1    10    11    1
     2    11    12   ar
     3    12    13   ar
     4    13    14   ar
     5     1    14    1
     6     1     2    1
     7     2     3    1
     8     3     4    1
     9     5     4    1
    10     5     6    1
    11     6     7    1
    12     7     8    1
    13    14    15   ar
    14    15    16   ar
    15    16    17    1
    16    16    11   ar
    17     5     1    1
    18     8     1    1
    19     7     9    1
@<TRIPOS>MOLECULE
*****
 17 19 0 0 0
SMALL
GASTEIGER

@<TRIPOS>ATOM
      1 C          63.1271   82.6447   12.7983 C.3     1  UNL1        0.0347
      2 C          63.8267   83.3380   11.6670 C.3     1  UNL1        0.0054
      3 C          63.9141   82.3777   10.5180 C.3     1  UNL1        0.0004
      4 C          63.2685   81.0909   10.9392 C.3     1  UNL1        0.0017
      5 C          62.7821   81.2559   12.3485 C.3     1  UNL1        0.0208
      6 C          62.0825   80.5626   13.4798 C.3     1  UNL1        0.0689
      7 N          61.9952   81.5229   14.6289 N.3     1  UNL1       -0.2972
      8 C          62.6408   82.8097   14.2076 C.3     1  UNL1        0.0726
      9 H          62.4832   81.1395   15.4383 H       1  UNL1        0.1233
     10 CL         64.5071   88.1995   14.5980 Cl      1  UNL1       -0.0814
     11 C          64.1622   86.8109   14.1481 C.ar    1  UNL1        0.0682
     12 C          64.6236   85.6276   14.9461 C.ar    1  UNL1        0.0119
     13 C          64.2786   84.2389   14.4961 C.ar    1  UNL1       -0.0033
     14 C          63.4721   84.0335   13.2482 C.ar    1  UNL1       -0.0206
     15 C          63.0107   85.2168   12.4502 C.ar    1  UNL1        0.0080
     16 C          63.3557   86.6054   12.9001 C.ar    1  UNL1        0.0679
     17 CL         62.8942   87.7887   12.1020 Cl      1  UNL1       -0.0814
@<TRIPOS>BOND
     1    10    11    1
     2    11    12   ar
     3    12    13   ar
     4    13    14   ar
     5     1    14    1
     6     1     2    1
     7     2     3    1
     8     3     4    1
     9     5     4    1
    10     5     6    1
    11     6     7    1
    12     7     8    1
    13    14    15   ar
    14    15    16   ar
    15    16    17    1
    16    16    11   ar
    17     5     1    1
    18     8     1    1
    19     7     9    1
@<TRIPOS>MOLECULE
*****
 17 19 0 0 0
SMALL
GASTEIGER

@<TRIPOS>ATOM
      1 C          64.3104   90.5833   13.4298 C.3     1  UNL1        0.0347
      2 C          63.2304   89.6869   12.9007 C.3     1  UNL1        0.0054
      3 C          62.8837   90.1467   11.5156 C.3     1  UNL1        0.0004
      4 C          63.7494   91.3273   11.1888 C.3     1  UNL1        0.0017
      5 C          64.6311   91.5971   12.3718 C.3     1  UNL1        0.0208
      6 C          65.7111   92.4936   12.9010 C.3     1  UNL1        0.0689
      7 N          66.0579   92.0338   14.2861 N.3     1  UNL1       -0.2972
      8 C          65.1922   90.8532   14.6129 C.3     1  UNL1        0.0726
      9 H          65.8849   92.7853   14.9538 H       1  UNL1        0.1233
     10 CL         63.0277   86.5284   17.6621 Cl      1  UNL1       -0.0814
     11 C          63.3483   87.5421   16.6041 C.ar    1  UNL1        0.0682
     12 C          62.9889   88.9833   16.8127 C.ar    1  UNL1        0.0119
     13 C          63.3096   89.9971   15.7546 C.ar    1  UNL1       -0.0033
     14 C          63.9897   89.5695   14.4879 C.ar    1  UNL1       -0.0206
     15 C          64.3492   88.1283   14.2793 C.ar    1  UNL1        0.0080
     16 C          64.0285   87.1146   15.3373 C.ar    1  UNL1        0.0679
     17 CL         64.3880   85.6733   15.1286 Cl      1  UNL1       -0.0814
@<TRIPOS>BOND
     1    10    11    1
     2    11    12   ar
     3    12    13   ar
     4    13    14   ar
     5     1    14    1
     6     1     2    1
     7     2     3    1
     8     3     4    1
     9     5     4    1
    10     5     6    1
    11     6     7    1
    12     7     8    1
    13    14    15   ar
    14    15    16   ar
    15    16    17    1
    16    16    11   ar
    17     5     1    1
    18     8     1    1
    19     7     9    1
@<TRIPOS>MOLECULE
*****
 17 19 0 0 0
SMALL
GASTEIGER

@<TRIPOS>ATOM
      1 C          61.1859   86.6131    8.8046 C.3     1  UNL1        0.0347
      2 C          62.5971   86.1117    8.8889 C.3     1  UNL1        0.0054
      3 C          62.8060   85.1264    7.7774 C.3     1  UNL1        0.0004
      4 C          61.5239   85.0188    7.0062 C.3     1  UNL1        0.0017
      5 C          60.5226   85.9376    7.6411 C.3     1  UNL1        0.0208
      6 C          59.1114   86.4390    7.5568 C.3     1  UNL1        0.0689
      7 N          58.9024   87.4244    8.6684 N.3     1  UNL1       -0.2972
      8 C          60.1846   87.5320    9.4395 C.3     1  UNL1        0.0726
      9 H          58.1553   87.1003    9.2824 H       1  UNL1        0.1233
     10 CL         63.8386   89.3149   13.4590 Cl      1  UNL1       -0.0814
     11 C          63.1755   88.6395   12.2954 C.ar    1  UNL1        0.0682
     12 C          62.9662   87.1542   12.3100 C.ar    1  UNL1        0.0119
     13 C          62.3030   86.4788   11.1464 C.ar    1  UNL1       -0.0033
     14 C          61.8491   87.2886    9.9682 C.ar    1  UNL1       -0.0206
     15 C          62.0583   88.7739    9.9537 C.ar    1  UNL1        0.0080
     16 C          62.7215   89.4493   11.1172 C.ar    1  UNL1        0.0679
     17 CL         62.9308   90.9345   11.1026 Cl      1  UNL1       -0.0814
@<TRIPOS>BOND
     1    10    11    1
     2    11    12   ar
     3    12    13   ar
     4    13    14   ar
     5     1    14    1
     6     1     2    1
     7     2     3    1
     8     3     4    1
     9     5     4    1
    10     5     6    1
    11     6     7    1
    12     7     8    1
    13    14    15   ar
    14    15    16   ar
    15    16    17    1
    16    16    11   ar
    17     5     1    1
    18     8     1    1
    19     7     9    1
@<TRIPOS>MOLECULE
*****
 17 19 0 0 0
SMALL
GASTEIGER

@<TRIPOS>ATOM
      1 C          63.2263   90.6546   12.0809 C.3     1  UNL1        0.0347
      2 C          63.5448   91.0930   10.6822 C.3     1  UNL1        0.0054
      3 C          64.6749   92.0770   10.7509 C.3     1  UNL1        0.0004
      4 C          65.0548   92.2467   12.1920 C.3     1  UNL1        0.0017
      5 C          64.1595   91.3676   13.0140 C.3     1  UNL1        0.0208
      6 C          63.8410   90.9292   14.4127 C.3     1  UNL1        0.0689
      7 N          62.7109   89.9452   14.3441 N.3     1  UNL1       -0.2972
      8 C          62.3311   89.7755   12.9029 C.3     1  UNL1        0.0726
      9 H          61.9130   90.2969   14.8733 H       1  UNL1        0.1233
     10 CL         59.4932   87.8026    8.3487 Cl      1  UNL1       -0.0814
     11 C          60.4264   88.5156    9.2817 C.ar    1  UNL1        0.0682
     12 C          60.0485   89.8545    9.8424 C.ar    1  UNL1        0.0119
     13 C          60.9818   90.5675   10.7754 C.ar    1  UNL1       -0.0033
     14 C          62.2931   89.9415   11.1478 C.ar    1  UNL1       -0.0206
     15 C          62.6710   88.6026   10.5871 C.ar    1  UNL1        0.0080
     16 C          61.7378   87.8896    9.6541 C.ar    1  UNL1        0.0679
     17 CL         62.1158   86.5507    9.0935 Cl      1  UNL1       -0.0814
@<TRIPOS>BOND
     1    10    11    1
     2    11    12   ar
     3    12    13   ar
     4    13    14   ar
     5     1    14    1
     6     1     2    1
     7     2     3    1
     8     3     4    1
     9     5     4    1
    10     5     6    1
    11     6     7    1
    12     7     8    1
    13    14    15   ar
    14    15    16   ar
    15    16    17    1
    16    16    11   ar
    17     5     1    1
    18     8     1    1
    19     7     9    1
@<TRIPOS>MOLECULE
*****
 17 19 0 0 0
SMALL
GASTEIGER

@<TRIPOS>ATOM
      1 C          62.9435   84.6454   11.4703 C.3     1  UNL1        0.0347
      2 C          63.2256   84.5216   10.0023 C.3     1  UNL1        0.0054
      3 C          64.0934   83.3154    9.7973 C.3     1  UNL1        0.0004
      4 C          64.3475   82.6937   11.1385 C.3     1  UNL1        0.0017
      5 C          63.6368   83.5157   12.1726 C.3     1  UNL1        0.0208
      6 C          63.3546   83.6395   13.6406 C.3     1  UNL1        0.0689
      7 N          62.4869   84.8458   13.8457 N.3     1  UNL1       -0.2972
      8 C          62.2328   85.4675   12.5043 C.3     1  UNL1        0.0726
      9 H          62.9612   85.5143   14.4527 H       1  UNL1        0.1233
     10 CL         60.1702   89.1644    8.6619 Cl      1  UNL1       -0.0814
     11 C          60.8635   88.0347    9.3640 C.ar    1  UNL1        0.0682
     12 C          61.7940   88.3194   10.5055 C.ar    1  UNL1        0.0119
     13 C          62.4873   87.1896   11.2076 C.ar    1  UNL1       -0.0033
     14 C          62.2501   85.7752   10.7682 C.ar    1  UNL1       -0.0206
     15 C          61.3197   85.4905    9.6266 C.ar    1  UNL1        0.0080
     16 C          60.6264   86.6202    8.9245 C.ar    1  UNL1        0.0679
     17 CL         59.6959   86.3356    7.7829 Cl      1  UNL1       -0.0814
@<TRIPOS>BOND
     1    10    11    1
     2    11    12   ar
     3    12    13   ar
     4    13    14   ar
     5     1    14    1
     6     1     2    1
     7     2     3    1
     8     3     4    1
     9     5     4    1
    10     5     6    1
    11     6     7    1
    12     7     8    1
    13    14    15   ar
    14    15    16   ar
    15    16    17    1
    16    16    11   ar
    17     5     1    1
    18     8     1    1
    19     7     9    1
@<TRIPOS>MOLECULE
*****
 17 19 0 0 0
SMALL
GASTEIGER

@<TRIPOS>ATOM
      1 C          63.2070   82.7665   12.6137 C.3     1  UNL1        0.0347
      2 C          62.5425   82.9328   13.9482 C.3     1  UNL1        0.0054
      3 C          61.8142   81.6604   14.2650 C.3     1  UNL1        0.0004
      4 C          62.0286   80.7076   13.1265 C.3     1  UNL1        0.0017
      5 C          62.8895   81.3912   12.1059 C.3     1  UNL1        0.0208
      6 C          63.5540   81.2249   10.7715 C.3     1  UNL1        0.0689
      7 N          64.2824   82.4974   10.4545 N.3     1  UNL1       -0.2972
      8 C          64.0679   83.4501   11.5932 C.3     1  UNL1        0.0726
      9 H          63.9159   82.9005    9.5922 H       1  UNL1        0.1233
     10 CL         64.4777   88.2673   14.6450 Cl      1  UNL1       -0.0814
     11 C          64.1600   86.8922   14.1372 C.ar    1  UNL1        0.0682
     12 C          64.6273   85.6858   14.8963 C.ar    1  UNL1        0.0119
     13 C          64.3097   84.3106   14.3885 C.ar    1  UNL1       -0.0033
     14 C          63.5247   84.1417   13.1215 C.ar    1  UNL1       -0.0206
     15 C          63.0574   85.3481   12.3623 C.ar    1  UNL1        0.0080
     16 C          63.3750   86.7232   12.8701 C.ar    1  UNL1        0.0679
     17 CL         62.9078   87.9296   12.1110 Cl      1  UNL1       -0.0814
@<TRIPOS>BOND
     1    10    11    1
     2    11    12   ar
     3    12    13   ar
     4    13    14   ar
     5     1    14    1
     6     1     2    1
     7     2     3    1
     8     3     4    1
     9     5     4    1
    10     5     6    1
    11     6     7    1
    12     7     8    1
    13    14    15   ar
    14    15    16   ar
    15    16    17    1
    16    16    11   ar
    17     5     1    1
    18     8     1    1
    19     7     9    1
@<TRIPOS>MOLECULE
*****
 17 19 0 0 0
SMALL
GASTEIGER

@<TRIPOS>ATOM
      1 C          63.1876   84.4998   13.6579 C.3     1  UNL1        0.0347
      2 C          63.8217   85.8013   13.2658 C.3     1  UNL1        0.0054
      3 C          64.2750   86.4918   14.5178 C.3     1  UNL1        0.0004
      4 C          63.9210   85.6171   15.6838 C.3     1  UNL1        0.0017
      5 C          63.2489   84.3859   15.1524 C.3     1  UNL1        0.0208
      6 C          62.6147   83.0844   15.5446 C.3     1  UNL1        0.0689
      7 N          62.1614   82.3937   14.2925 N.3     1  UNL1       -0.2972
      8 C          62.5154   83.2686   13.1265 C.3     1  UNL1        0.0726
      9 H          61.1521   82.2492   14.3229 H       1  UNL1        0.1233
     10 CL         62.9422   84.9546    7.6803 Cl      1  UNL1       -0.0814
     11 C          63.0035   84.8409    9.1746 C.ar    1  UNL1        0.0682
     12 C          63.7998   83.7405    9.8110 C.ar    1  UNL1        0.0119
     13 C          63.8611   83.6268   11.3055 C.ar    1  UNL1       -0.0033
     14 C          63.1262   84.6135   12.1635 C.ar    1  UNL1       -0.0206
     15 C          62.3299   85.7139   11.5271 C.ar    1  UNL1        0.0080
     16 C          62.2685   85.8277   10.0328 C.ar    1  UNL1        0.0679
     17 CL         61.4722   86.9281    9.3964 Cl      1  UNL1       -0.0814
@<TRIPOS>BOND
     1    10    11    1
     2    11    12   ar
     3    12    13   ar
     4    13    14   ar
     5     1    14    1
     6     1     2    1
     7     2     3    1
     8     3     4    1
     9     5     4    1
    10     5     6    1
    11     6     7    1
    12     7     8    1
    13    14    15   ar
    14    15    16   ar
    15    16    17    1
    16    16    11   ar
    17     5     1    1
    18     8     1    1
    19     7     9    1
