@<TRIPOS>MOLECULE
*****
 34 38 0 0 0
SMALL
GASTEIGER

@<TRIPOS>ATOM
      1 O          59.9109   89.0882   12.2443 O.2     1  UNL1       -0.2733
      2 C          61.0555   88.7885   11.3222 C.2     1  UNL1        0.2408
      3 N          62.3883   89.4396   11.5450 N.am    1  UNL1       -0.2990
      4 H          63.1396   89.2429   10.9399 H       1  UNL1        0.1498
      5 C          60.8672   87.8378   10.1774 C.3     1  UNL1        0.1518
      6 C          60.0268   88.0804    8.9589 C.3     1  UNL1        0.0309
      7 C          60.1265   86.8701    8.0785 C.3     1  UNL1        0.0220
      8 C          60.4144   85.5513    7.4243 C.3     1  UNL1        0.0215
      9 C          61.0285   85.8793    8.7530 C.3     1  UNL1        0.0759
     10 N          61.4862   86.4774   10.0502 N.am    1  UNL1       -0.2724
     11 C          62.4022   85.8290   11.0454 C.2     1  UNL1        0.2571
     12 O          62.7739   86.5530   12.3054 O.2     1  UNL1       -0.2719
     13 C          62.9466   84.4565   10.7807 C.3     1  UNL1        0.2096
     14 O          63.6415   84.1626    9.4842 O.3     1  UNL1       -0.3719
     15 H          63.6526   84.9619    8.9349 H       1  UNL1        0.2114
     16 C          62.7961   83.3781   11.8123 C.ar    1  UNL1        0.0131
     17 C          62.9191   81.9371   11.4145 C.ar    1  UNL1       -0.0015
     18 C          62.7686   80.8587   12.4462 C.ar    1  UNL1       -0.0002
     19 C          62.4950   81.2214   13.8758 C.ar    1  UNL1       -0.0000
     20 C          62.3720   82.6625   14.2736 C.ar    1  UNL1       -0.0002
     21 C          62.5225   83.7408   13.2419 C.ar    1  UNL1       -0.0015
     22 C          62.5766   90.3903   12.6898 C.3     1  UNL1        0.1179
     23 C          63.9401   90.9360   12.9952 C.ar    1  UNL1        0.0161
     24 C          64.5426   91.9871   12.1109 C.ar    1  UNL1        0.0103
     25 C          65.9061   92.5327   12.4163 C.ar    1  UNL1        0.0575
     26 CL         66.5087   93.5839   11.5320 Cl      1  UNL1       -0.0823
     27 C          66.6670   92.0271   13.6060 C.ar    1  UNL1        0.0129
     28 C          66.0645   90.9760   14.4903 C.ar    1  UNL1        0.0199
     29 C          64.7011   90.4304   14.1849 C.ar    1  UNL1        0.0839
     30 N          64.0985   89.3792   15.0692 N.ar    1  UNL1       -0.1889
     31 C          63.2799   89.6269   16.3015 C.ar    1  UNL1        0.2258
     32 N          62.8842   88.2966   16.8703 N.ar    1  UNL1       -0.1045
     33 N          63.4583   87.2266   15.9896 N.ar    1  UNL1       -0.0222
     34 N          64.2088   87.8957   14.8765 N.ar    1  UNL1       -0.0385
@<TRIPOS>BOND
     1     1     2    2
     2     2     3   am
     3     3    22    1
     4    22    23    1
     5    23    24   ar
     6    24    25   ar
     7    25    26    1
     8    25    27   ar
     9    27    28   ar
    10    28    29   ar
    11    29    30    1
    12    30    31   ar
    13    31    32   ar
    14    32    33   ar
    15    33    34   ar
    16     5     2    1
    17     5     6    1
    18     7     6    1
    19     7     8    1
    20     9     8    1
    21     9    10    1
    22    10    11   am
    23    11    12    2
    24    11    13    1
    25    13    14    1
    26    13    16    1
    27    16    17   ar
    28    17    18   ar
    29    18    19   ar
    30    19    20   ar
    31    20    21   ar
    32    29    23   ar
    33    34    30   ar
    34    10     5    1
    35    21    16   ar
    36     9     7    1
    37     3     4    1
    38    14    15    1
@<TRIPOS>MOLECULE
*****
 34 38 0 0 0
SMALL
GASTEIGER

@<TRIPOS>ATOM
      1 O          60.8713   88.8419   11.7462 O.2     1  UNL1       -0.2733
      2 C          62.3631   88.7962   11.8959 C.2     1  UNL1        0.2408
      3 N          63.0477   87.4946   12.1914 N.am    1  UNL1       -0.2990
      4 H          64.0268   87.4646   12.2897 H       1  UNL1        0.1498
      5 C          63.1703   90.0520   11.7502 C.3     1  UNL1        0.1518
      6 C          63.5245   90.7276   10.4586 C.3     1  UNL1        0.0309
      7 C          64.3381   91.9459   10.7806 C.3     1  UNL1        0.0220
      8 C          65.1115   93.0722   11.3997 C.3     1  UNL1        0.0215
      9 C          64.4868   92.0233   12.2713 C.3     1  UNL1        0.0759
     10 N          63.7650   90.8528   12.8704 N.am    1  UNL1       -0.2724
     11 C          63.6570   90.5383   14.3331 C.2     1  UNL1        0.2571
     12 O          62.8984   89.3260   14.7856 O.2     1  UNL1       -0.2719
     13 C          64.3077   91.4361   15.3434 C.3     1  UNL1        0.2096
     14 O          63.5096   91.9714   16.4951 O.3     1  UNL1       -0.3719
     15 H          62.5986   91.6432   16.4375 H       1  UNL1        0.2114
     16 C          65.7563   91.7986   15.2020 C.ar    1  UNL1        0.0131
     17 C          66.5746   91.2006   14.0961 C.ar    1  UNL1       -0.0015
     18 C          68.0232   91.5631   13.9547 C.ar    1  UNL1       -0.0002
     19 C          68.6536   92.5236   14.9192 C.ar    1  UNL1       -0.0000
     20 C          67.8353   93.1215   16.0250 C.ar    1  UNL1       -0.0002
     21 C          66.3867   92.7590   16.1664 C.ar    1  UNL1       -0.0015
     22 C          62.2405   86.2388   12.3371 C.3     1  UNL1        0.1179
     23 C          62.9301   84.9090   12.4172 C.ar    1  UNL1        0.0161
     24 C          63.2580   84.1574   11.1612 C.ar    1  UNL1        0.0103
     25 C          63.9475   82.8277   11.2412 C.ar    1  UNL1        0.0575
     26 CL         64.2754   82.0761    9.9852 Cl      1  UNL1       -0.0823
     27 C          64.3091   82.2496   12.5773 C.ar    1  UNL1        0.0129
     28 C          63.9811   83.0012   13.8333 C.ar    1  UNL1        0.0199
     29 C          63.2916   84.3309   13.7532 C.ar    1  UNL1        0.0839
     30 N          62.9637   85.0825   15.0092 N.ar    1  UNL1       -0.1889
     31 C          63.8733   86.0315   15.7318 C.ar    1  UNL1        0.2258
     32 N          63.1403   86.5526   16.9323 N.ar    1  UNL1       -0.1045
     33 N          61.7776   85.9257   16.9517 N.ar    1  UNL1       -0.0222
     34 N          61.6685   85.0172   15.7631 N.ar    1  UNL1       -0.0385
@<TRIPOS>BOND
     1     1     2    2
     2     2     3   am
     3     3    22    1
     4    22    23    1
     5    23    24   ar
     6    24    25   ar
     7    25    26    1
     8    25    27   ar
     9    27    28   ar
    10    28    29   ar
    11    29    30    1
    12    30    31   ar
    13    31    32   ar
    14    32    33   ar
    15    33    34   ar
    16     5     2    1
    17     5     6    1
    18     7     6    1
    19     7     8    1
    20     9     8    1
    21     9    10    1
    22    10    11   am
    23    11    12    2
    24    11    13    1
    25    13    14    1
    26    13    16    1
    27    16    17   ar
    28    17    18   ar
    29    18    19   ar
    30    19    20   ar
    31    20    21   ar
    32    29    23   ar
    33    34    30   ar
    34    10     5    1
    35    21    16   ar
    36     9     7    1
    37     3     4    1
    38    14    15    1
@<TRIPOS>MOLECULE
*****
 34 38 0 0 0
SMALL
GASTEIGER

@<TRIPOS>ATOM
      1 O          60.4655   90.3615   11.4994 O.2     1  UNL1       -0.2733
      2 C          61.4128   89.7684   10.4991 C.2     1  UNL1        0.2408
      3 N          62.8043   90.3134   10.3691 N.am    1  UNL1       -0.2990
      4 H          63.4261   89.9241    9.7125 H       1  UNL1        0.1498
      5 C          60.9688   88.6303    9.6288 C.3     1  UNL1        0.1518
      6 C          59.9954   88.7182    8.4909 C.3     1  UNL1        0.0309
      7 C          59.8452   87.3467    7.9024 C.3     1  UNL1        0.0220
      8 C          59.9009   85.8933    7.5357 C.3     1  UNL1        0.0215
      9 C          60.7257   86.4111    8.6766 C.3     1  UNL1        0.0759
     10 N          61.4201   87.2045    9.7436 N.am    1  UNL1       -0.2724
     11 C          62.3948   86.6664   10.7488 C.2     1  UNL1        0.2571
     12 O          63.0122   87.5851   11.7610 O.2     1  UNL1       -0.2719
     13 C          62.7520   85.2095   10.7418 C.3     1  UNL1        0.2096
     14 O          63.2328   84.5613    9.4774 O.3     1  UNL1       -0.3719
     15 H          63.2541   85.2190    8.7648 H       1  UNL1        0.2114
     16 C          62.6286   84.4010   11.9992 C.ar    1  UNL1        0.0131
     17 C          62.6278   85.0854   13.3339 C.ar    1  UNL1       -0.0015
     18 C          62.5043   84.2768   14.5913 C.ar    1  UNL1       -0.0002
     19 C          62.3816   82.7838   14.5138 C.ar    1  UNL1       -0.0000
     20 C          62.3824   82.0994   13.1791 C.ar    1  UNL1       -0.0002
     21 C          62.5059   82.9080   11.9217 C.ar    1  UNL1       -0.0015
     22 C          63.2484   91.4515   11.2394 C.3     1  UNL1        0.1179
     23 C          63.9652   91.1751   12.5278 C.ar    1  UNL1        0.0161
     24 C          63.3556   90.2539   13.5425 C.ar    1  UNL1        0.0103
     25 C          64.0724   89.9775   14.8308 C.ar    1  UNL1        0.0575
     26 CL         63.4628   89.0562   15.8456 Cl      1  UNL1       -0.0823
     27 C          65.3987   90.6224   15.1044 C.ar    1  UNL1        0.0129
     28 C          66.0083   91.5437   14.0897 C.ar    1  UNL1        0.0199
     29 C          65.2915   91.8200   12.8014 C.ar    1  UNL1        0.0839
     30 N          65.9011   92.7414   11.7866 N.ar    1  UNL1       -0.1889
     31 C          66.1544   94.2087   11.9677 C.ar    1  UNL1        0.2258
     32 N          66.7742   94.7312   10.7056 N.ar    1  UNL1       -0.1045
     33 N          66.9040   93.5868    9.7445 N.ar    1  UNL1       -0.0222
     34 N          66.3643   92.3570   10.4127 N.ar    1  UNL1       -0.0385
@<TRIPOS>BOND
     1     1     2    2
     2     2     3   am
     3     3    22    1
     4    22    23    1
     5    23    24   ar
     6    24    25   ar
     7    25    26    1
     8    25    27   ar
     9    27    28   ar
    10    28    29   ar
    11    29    30    1
    12    30    31   ar
    13    31    32   ar
    14    32    33   ar
    15    33    34   ar
    16     5     2    1
    17     5     6    1
    18     7     6    1
    19     7     8    1
    20     9     8    1
    21     9    10    1
    22    10    11   am
    23    11    12    2
    24    11    13    1
    25    13    14    1
    26    13    16    1
    27    16    17   ar
    28    17    18   ar
    29    18    19   ar
    30    19    20   ar
    31    20    21   ar
    32    29    23   ar
    33    34    30   ar
    34    10     5    1
    35    21    16   ar
    36     9     7    1
    37     3     4    1
    38    14    15    1
@<TRIPOS>MOLECULE
*****
 34 38 0 0 0
SMALL
GASTEIGER

@<TRIPOS>ATOM
      1 O          63.5018   84.5125    9.0378 O.2     1  UNL1       -0.2733
      2 C          62.6609   85.3251    9.9772 C.2     1  UNL1        0.2408
      3 N          62.7668   85.1076   11.4576 N.am    1  UNL1       -0.2990
      4 H          62.2149   85.6409   12.0743 H       1  UNL1        0.1498
      5 C          61.7141   86.3551    9.4364 C.3     1  UNL1        0.1518
      6 C          60.7706   86.1675    8.2854 C.3     1  UNL1        0.0309
      7 C          60.0179   87.4500    8.0892 C.3     1  UNL1        0.0220
      8 C          59.4371   88.8322    8.1356 C.3     1  UNL1        0.0215
      9 C          60.4962   88.4303    9.1189 C.3     1  UNL1        0.0759
     10 N          61.5445   87.7536    9.9515 N.am    1  UNL1       -0.2724
     11 C          62.2919   88.3677   11.0979 C.2     1  UNL1        0.2571
     12 O          63.3174   87.5640   11.8410 O.2     1  UNL1       -0.2719
     13 C          62.0138   89.7854   11.5013 C.3     1  UNL1        0.2096
     14 O          60.6060   90.2248   11.7752 O.3     1  UNL1       -0.3719
     15 H          60.0028   89.4761   11.6467 H       1  UNL1        0.2114
     16 C          63.1435   90.7637   11.6306 C.ar    1  UNL1        0.0131
     17 C          63.6197   91.5229   10.4278 C.ar    1  UNL1       -0.0015
     18 C          64.7494   92.5011   10.5572 C.ar    1  UNL1       -0.0002
     19 C          65.4028   92.7202   11.8895 C.ar    1  UNL1       -0.0000
     20 C          64.9266   91.9611   13.0924 C.ar    1  UNL1       -0.0002
     21 C          63.7969   90.9828   12.9629 C.ar    1  UNL1       -0.0015
     22 C          63.7136   84.0776   11.9985 C.3     1  UNL1        0.1179
     23 C          63.1932   82.7470   12.4556 C.ar    1  UNL1        0.0161
     24 C          63.1493   81.5908   11.5011 C.ar    1  UNL1        0.0103
     25 C          62.6290   80.2603   11.9582 C.ar    1  UNL1        0.0575
     26 CL         62.5850   79.1039   11.0037 Cl      1  UNL1       -0.0823
     27 C          62.1525   80.0860   13.3698 C.ar    1  UNL1        0.0129
     28 C          62.1964   81.2423   14.3243 C.ar    1  UNL1        0.0199
     29 C          62.7168   82.5728   13.8672 C.ar    1  UNL1        0.0839
     30 N          62.7607   83.7291   14.8217 N.ar    1  UNL1       -0.1889
     31 C          63.9963   84.3257   15.4277 C.ar    1  UNL1        0.2258
     32 N          63.5759   85.4572   16.3183 N.ar    1  UNL1       -0.1045
     33 N          62.0804   85.5598   16.2628 N.ar    1  UNL1       -0.0222
     34 N          61.5766   84.4918   15.3378 N.ar    1  UNL1       -0.0385
@<TRIPOS>BOND
     1     1     2    2
     2     2     3   am
     3     3    22    1
     4    22    23    1
     5    23    24   ar
     6    24    25   ar
     7    25    26    1
     8    25    27   ar
     9    27    28   ar
    10    28    29   ar
    11    29    30    1
    12    30    31   ar
    13    31    32   ar
    14    32    33   ar
    15    33    34   ar
    16     5     2    1
    17     5     6    1
    18     7     6    1
    19     7     8    1
    20     9     8    1
    21     9    10    1
    22    10    11   am
    23    11    12    2
    24    11    13    1
    25    13    14    1
    26    13    16    1
    27    16    17   ar
    28    17    18   ar
    29    18    19   ar
    30    19    20   ar
    31    20    21   ar
    32    29    23   ar
    33    34    30   ar
    34    10     5    1
    35    21    16   ar
    36     9     7    1
    37     3     4    1
    38    14    15    1
@<TRIPOS>MOLECULE
*****
 34 38 0 0 0
SMALL
GASTEIGER

@<TRIPOS>ATOM
      1 O          61.3390   90.2951   10.5950 O.2     1  UNL1       -0.2733
      2 C          62.6743   90.0003   11.2117 C.2     1  UNL1        0.2408
      3 N          63.0216   88.5974   11.6134 N.am    1  UNL1       -0.2990
      4 H          63.8979   88.4039   12.0182 H       1  UNL1        0.1498
      5 C          63.6621   91.1084   11.4268 C.3     1  UNL1        0.1518
      6 C          64.2557   91.9798   10.3599 C.3     1  UNL1        0.0309
      7 C          65.1903   92.9496   11.0202 C.3     1  UNL1        0.0220
      8 C          66.0378   93.7732   11.9440 C.3     1  UNL1        0.0215
      9 C          65.1743   92.6775   12.4953 C.3     1  UNL1        0.0759
     10 N          64.2298   91.5396   12.7465 N.am    1  UNL1       -0.2724
     11 C          63.9093   90.9385   14.0829 C.2     1  UNL1        0.2571
     12 O          62.9397   89.7981   14.1792 O.2     1  UNL1       -0.2719
     13 C          64.5584   91.4778   15.3231 C.3     1  UNL1        0.2096
     14 O          63.7635   91.6116   16.5880 O.3     1  UNL1       -0.3719
     15 H          62.8554   91.3080   16.4329 H       1  UNL1        0.2114
     16 C          66.0024   91.8831   15.2982 C.ar    1  UNL1        0.0131
     17 C          66.4823   93.0029   16.1733 C.ar    1  UNL1       -0.0015
     18 C          67.9262   93.4082   16.1484 C.ar    1  UNL1       -0.0002
     19 C          68.8903   92.6938   15.2483 C.ar    1  UNL1       -0.0000
     20 C          68.4104   91.5740   14.3732 C.ar    1  UNL1       -0.0002
     21 C          66.9665   91.1687   14.3981 C.ar    1  UNL1       -0.0015
     22 C          62.0338   87.4893   11.3983 C.3     1  UNL1        0.1179
     23 C          62.4678   86.2158   10.7350 C.ar    1  UNL1        0.0161
     24 C          62.3876   86.0822    9.2431 C.ar    1  UNL1        0.0103
     25 C          62.8216   84.8088    8.5798 C.ar    1  UNL1        0.0575
     26 CL         62.7415   84.6751    7.0879 Cl      1  UNL1       -0.0823
     27 C          63.3357   83.6690    9.4084 C.ar    1  UNL1        0.0129
     28 C          63.4159   83.8026   10.9003 C.ar    1  UNL1        0.0199
     29 C          62.9819   85.0760   11.5635 C.ar    1  UNL1        0.0839
     30 N          63.0620   85.2097   13.0555 N.ar    1  UNL1       -0.1889
     31 C          62.4677   84.2658   14.0584 C.ar    1  UNL1        0.2258
     32 N          62.7889   84.7835   15.4291 N.ar    1  UNL1       -0.1045
     33 N          63.5816   86.0474   15.2733 N.ar    1  UNL1       -0.0222
     34 N          63.7504   86.3108   13.8063 N.ar    1  UNL1       -0.0385
@<TRIPOS>BOND
     1     1     2    2
     2     2     3   am
     3     3    22    1
     4    22    23    1
     5    23    24   ar
     6    24    25   ar
     7    25    26    1
     8    25    27   ar
     9    27    28   ar
    10    28    29   ar
    11    29    30    1
    12    30    31   ar
    13    31    32   ar
    14    32    33   ar
    15    33    34   ar
    16     5     2    1
    17     5     6    1
    18     7     6    1
    19     7     8    1
    20     9     8    1
    21     9    10    1
    22    10    11   am
    23    11    12    2
    24    11    13    1
    25    13    14    1
    26    13    16    1
    27    16    17   ar
    28    17    18   ar
    29    18    19   ar
    30    19    20   ar
    31    20    21   ar
    32    29    23   ar
    33    34    30   ar
    34    10     5    1
    35    21    16   ar
    36     9     7    1
    37     3     4    1
    38    14    15    1
@<TRIPOS>MOLECULE
*****
 34 38 0 0 0
SMALL
GASTEIGER

@<TRIPOS>ATOM
      1 O          61.7553   88.2330   12.2870 O.2     1  UNL1       -0.2733
      2 C          62.1589   88.5583   10.8794 C.2     1  UNL1        0.2408
      3 N          62.7537   89.8980   10.5604 N.am    1  UNL1       -0.2990
      4 H          63.0186   90.1116    9.6366 H       1  UNL1        0.1498
      5 C          61.9679   87.5442    9.7909 C.3     1  UNL1        0.1518
      6 C          62.7337   86.2639    9.6343 C.3     1  UNL1        0.0309
      7 C          62.2166   85.5606    8.4145 C.3     1  UNL1        0.0220
      8 C          61.5084   85.1051    7.1731 C.3     1  UNL1        0.0215
      9 C          61.1311   86.4063    7.8172 C.3     1  UNL1        0.0759
     10 N          60.9775   87.6321    8.6679 N.am    1  UNL1       -0.2724
     11 C          60.0042   88.7497    8.4361 C.2     1  UNL1        0.2571
     12 O          59.9654   89.9176    9.3767 O.2     1  UNL1       -0.2719
     13 C          59.0697   88.6996    7.2638 C.3     1  UNL1        0.2096
     14 O          58.1610   87.5205    7.0791 O.3     1  UNL1       -0.3719
     15 H          58.3032   86.8867    7.7995 H       1  UNL1        0.2114
     16 C          59.0439   89.8284    6.2764 C.ar    1  UNL1        0.0131
     17 C          60.3243   90.3314    5.6786 C.ar    1  UNL1       -0.0015
     18 C          60.2984   91.4602    4.6912 C.ar    1  UNL1       -0.0002
     19 C          58.9921   92.0860    4.3016 C.ar    1  UNL1       -0.0000
     20 C          57.7116   91.5830    4.8994 C.ar    1  UNL1       -0.0002
     21 C          57.7375   90.4542    5.8868 C.ar    1  UNL1       -0.0015
     22 C          62.9447   90.9122   11.6489 C.3     1  UNL1        0.1179
     23 C          64.2972   91.5181   11.8805 C.ar    1  UNL1        0.0161
     24 C          64.9778   92.2763   10.7797 C.ar    1  UNL1        0.0103
     25 C          66.3303   92.8822   11.0113 C.ar    1  UNL1        0.0575
     26 CL         67.0110   93.6405    9.9105 Cl      1  UNL1       -0.0823
     27 C          67.0022   92.7299   12.3438 C.ar    1  UNL1        0.0129
     28 C          66.3215   91.9717   13.4446 C.ar    1  UNL1        0.0199
     29 C          64.9691   91.3658   13.2130 C.ar    1  UNL1        0.0839
     30 N          64.2884   90.6075   14.3138 N.ar    1  UNL1       -0.1889
     31 C          64.2446   89.1154   14.4603 C.ar    1  UNL1        0.2258
     32 N          63.4611   88.7940   15.6984 N.ar    1  UNL1       -0.1045
     33 N          63.0208   90.0876   16.3172 N.ar    1  UNL1       -0.0222
     34 N          63.5321   91.2084   15.4614 N.ar    1  UNL1       -0.0385
@<TRIPOS>BOND
     1     1     2    2
     2     2     3   am
     3     3    22    1
     4    22    23    1
     5    23    24   ar
     6    24    25   ar
     7    25    26    1
     8    25    27   ar
     9    27    28   ar
    10    28    29   ar
    11    29    30    1
    12    30    31   ar
    13    31    32   ar
    14    32    33   ar
    15    33    34   ar
    16     5     2    1
    17     5     6    1
    18     7     6    1
    19     7     8    1
    20     9     8    1
    21     9    10    1
    22    10    11   am
    23    11    12    2
    24    11    13    1
    25    13    14    1
    26    13    16    1
    27    16    17   ar
    28    17    18   ar
    29    18    19   ar
    30    19    20   ar
    31    20    21   ar
    32    29    23   ar
    33    34    30   ar
    34    10     5    1
    35    21    16   ar
    36     9     7    1
    37     3     4    1
    38    14    15    1
@<TRIPOS>MOLECULE
*****
 34 38 0 0 0
SMALL
GASTEIGER

@<TRIPOS>ATOM
      1 O          61.6629   90.4701   11.8653 O.2     1  UNL1       -0.2733
      2 C          62.7336   89.7239   12.6048 C.2     1  UNL1        0.2408
      3 N          62.9057   88.2495   12.3891 N.am    1  UNL1       -0.2990
      4 H          63.6085   87.7597   12.8745 H       1  UNL1        0.1498
      5 C          63.6321   90.4521   13.5600 C.3     1  UNL1        0.1518
      6 C          63.7685   90.1746   15.0278 C.3     1  UNL1        0.0309
      7 C          64.7727   91.1367   15.5900 C.3     1  UNL1        0.0220
      8 C          65.7929   92.2034   15.8571 C.3     1  UNL1        0.0215
      9 C          65.2568   92.0088   14.4697 C.3     1  UNL1        0.0759
     10 N          64.5519   91.5857   13.2151 N.am    1  UNL1       -0.2724
     11 C          64.7347   92.1900   11.8545 C.2     1  UNL1        0.2571
     12 O          63.9565   91.6590   10.6872 O.2     1  UNL1       -0.2719
     13 C          65.6957   93.3254   11.6610 C.3     1  UNL1        0.2096
     14 O          65.6913   94.4826   12.6154 O.3     1  UNL1       -0.3719
     15 H          65.0123   94.3400   13.2933 H       1  UNL1        0.2114
     16 C          66.6610   93.3036   10.5131 C.ar    1  UNL1        0.0131
     17 C          67.5745   92.1290   10.3235 C.ar    1  UNL1       -0.0015
     18 C          68.5398   92.1073    9.1756 C.ar    1  UNL1       -0.0002
     19 C          68.5916   93.2601    8.2173 C.ar    1  UNL1       -0.0000
     20 C          67.6781   94.4347    8.4069 C.ar    1  UNL1       -0.0002
     21 C          66.7129   94.4564    9.5548 C.ar    1  UNL1       -0.0015
     22 C          62.0072   87.5213   11.4340 C.3     1  UNL1        0.1179
     23 C          62.4904   86.2763   10.7507 C.ar    1  UNL1        0.0161
     24 C          62.4620   86.1831    9.2539 C.ar    1  UNL1        0.0103
     25 C          62.9452   84.9383    8.5707 C.ar    1  UNL1        0.0575
     26 CL         62.9168   84.8450    7.0738 Cl      1  UNL1       -0.0823
     27 C          63.4568   83.7866    9.3843 C.ar    1  UNL1        0.0129
     28 C          63.4852   83.8798   10.8811 C.ar    1  UNL1        0.0199
     29 C          63.0021   85.1247   11.5643 C.ar    1  UNL1        0.0839
     30 N          63.0305   85.2180   13.0612 N.ar    1  UNL1       -0.1889
     31 C          62.2056   84.4013   14.0113 C.ar    1  UNL1        0.2258
     32 N          62.5541   84.8229   15.4080 N.ar    1  UNL1       -0.1045
     33 N          63.5944   85.9001   15.3211 N.ar    1  UNL1       -0.0222
     34 N          63.8887   86.1443   13.8707 N.ar    1  UNL1       -0.0385
@<TRIPOS>BOND
     1     1     2    2
     2     2     3   am
     3     3    22    1
     4    22    23    1
     5    23    24   ar
     6    24    25   ar
     7    25    26    1
     8    25    27   ar
     9    27    28   ar
    10    28    29   ar
    11    29    30    1
    12    30    31   ar
    13    31    32   ar
    14    32    33   ar
    15    33    34   ar
    16     5     2    1
    17     5     6    1
    18     7     6    1
    19     7     8    1
    20     9     8    1
    21     9    10    1
    22    10    11   am
    23    11    12    2
    24    11    13    1
    25    13    14    1
    26    13    16    1
    27    16    17   ar
    28    17    18   ar
    29    18    19   ar
    30    19    20   ar
    31    20    21   ar
    32    29    23   ar
    33    34    30   ar
    34    10     5    1
    35    21    16   ar
    36     9     7    1
    37     3     4    1
    38    14    15    1
@<TRIPOS>MOLECULE
*****
 34 38 0 0 0
SMALL
GASTEIGER

@<TRIPOS>ATOM
      1 O          62.4947   90.0671   14.6462 O.2     1  UNL1       -0.2733
      2 C          63.7525   90.2522   13.8502 C.2     1  UNL1        0.2408
      3 N          63.9439   89.5023   12.5652 N.am    1  UNL1       -0.2990
      4 H          64.7695   89.6238   12.0427 H       1  UNL1        0.1498
      5 C          64.8188   91.1870   14.3391 C.3     1  UNL1        0.1518
      6 C          65.4340   91.1845   15.7071 C.3     1  UNL1        0.0309
      7 C          66.4525   92.2844   15.7593 C.3     1  UNL1        0.0220
      8 C          67.3831   93.4352   15.5148 C.3     1  UNL1        0.0215
      9 C          66.4668   92.9667   14.4235 C.3     1  UNL1        0.0759
     10 N          65.4571   92.2884   13.5458 N.am    1  UNL1       -0.2724
     11 C          65.1411   92.6485   12.1243 C.2     1  UNL1        0.2571
     12 O          64.1011   91.8759   11.3684 O.2     1  UNL1       -0.2719
     13 C          65.8652   93.7811   11.4587 C.3     1  UNL1        0.2096
     14 O          65.6271   95.1916   11.9098 O.3     1  UNL1       -0.3719
     15 H          64.9822   95.1949   12.6344 H       1  UNL1        0.2114
     16 C          66.8274   93.5030   10.3420 C.ar    1  UNL1        0.0131
     17 C          67.6312   92.2366   10.3425 C.ar    1  UNL1       -0.0015
     18 C          68.5934   91.9587    9.2258 C.ar    1  UNL1       -0.0002
     19 C          68.7516   92.9471    8.1087 C.ar    1  UNL1       -0.0000
     20 C          67.9477   94.2135    8.1082 C.ar    1  UNL1       -0.0002
     21 C          66.9856   94.4914    9.2249 C.ar    1  UNL1       -0.0015
     22 C          62.8777   88.5675   12.0763 C.3     1  UNL1        0.1179
     23 C          62.9891   87.0960   12.3456 C.ar    1  UNL1        0.0161
     24 C          63.8165   86.6047   13.4962 C.ar    1  UNL1        0.0103
     25 C          63.9279   85.1333   13.7655 C.ar    1  UNL1        0.0575
     26 CL         64.7553   84.6420   14.9162 Cl      1  UNL1       -0.0823
     27 C          63.2121   84.1532   12.8840 C.ar    1  UNL1        0.0129
     28 C          62.3848   84.6445   11.7333 C.ar    1  UNL1        0.0199
     29 C          62.2733   86.1159   11.4641 C.ar    1  UNL1        0.0839
     30 N          61.4459   86.6073   10.3134 N.ar    1  UNL1       -0.1889
     31 C          61.6868   86.3086    8.8633 C.ar    1  UNL1        0.2258
     32 N          60.6222   87.0003    8.0645 N.ar    1  UNL1       -0.1045
     33 N          59.7234   87.7266    9.0209 N.ar    1  UNL1       -0.0222
     34 N          60.2325   87.4837   10.4107 N.ar    1  UNL1       -0.0385
@<TRIPOS>BOND
     1     1     2    2
     2     2     3   am
     3     3    22    1
     4    22    23    1
     5    23    24   ar
     6    24    25   ar
     7    25    26    1
     8    25    27   ar
     9    27    28   ar
    10    28    29   ar
    11    29    30    1
    12    30    31   ar
    13    31    32   ar
    14    32    33   ar
    15    33    34   ar
    16     5     2    1
    17     5     6    1
    18     7     6    1
    19     7     8    1
    20     9     8    1
    21     9    10    1
    22    10    11   am
    23    11    12    2
    24    11    13    1
    25    13    14    1
    26    13    16    1
    27    16    17   ar
    28    17    18   ar
    29    18    19   ar
    30    19    20   ar
    31    20    21   ar
    32    29    23   ar
    33    34    30   ar
    34    10     5    1
    35    21    16   ar
    36     9     7    1
    37     3     4    1
    38    14    15    1
@<TRIPOS>MOLECULE
*****
 34 38 0 0 0
SMALL
GASTEIGER

@<TRIPOS>ATOM
      1 O          63.6191   87.9256   15.2555 O.2     1  UNL1       -0.2733
      2 C          63.8509   87.7103   13.7892 C.2     1  UNL1        0.2408
      3 N          64.3375   86.3805   13.2942 N.am    1  UNL1       -0.2990
      4 H          64.4897   86.2392   12.3318 H       1  UNL1        0.1498
      5 C          63.5960   88.8246   12.8181 C.3     1  UNL1        0.1518
      6 C          64.1680   90.2092   12.8948 C.3     1  UNL1        0.0309
      7 C          63.6499   90.9903   11.7238 C.3     1  UNL1        0.0220
      8 C          62.9831   91.5045   10.4824 C.3     1  UNL1        0.0215
      9 C          62.7577   90.0885   10.9233 C.3     1  UNL1        0.0759
     10 N          62.7244   88.7501   11.5996 N.am    1  UNL1       -0.2724
     11 C          61.9546   87.5481   11.1384 C.2     1  UNL1        0.2571
     12 O          62.0184   86.2706   11.9219 O.2     1  UNL1       -0.2719
     13 C          61.1210   87.6236    9.8936 C.3     1  UNL1        0.2096
     14 O          60.0910   88.7039    9.7451 O.3     1  UNL1       -0.3719
     15 H          60.0933   89.2638   10.5372 H       1  UNL1        0.2114
     16 C          61.3174   86.6187    8.7974 C.ar    1  UNL1        0.0131
     17 C          60.1783   86.2714    7.8854 C.ar    1  UNL1       -0.0015
     18 C          60.3748   85.2665    6.7892 C.ar    1  UNL1       -0.0002
     19 C          61.7104   84.6091    6.6050 C.ar    1  UNL1       -0.0000
     20 C          62.8495   84.9564    7.5170 C.ar    1  UNL1       -0.0002
     21 C          62.6530   85.9613    8.6132 C.ar    1  UNL1       -0.0015
     22 C          64.5924   85.2662   14.2654 C.3     1  UNL1        0.1179
     23 C          63.7687   84.0141   14.2033 C.ar    1  UNL1        0.0161
     24 C          64.0794   82.9619   13.1804 C.ar    1  UNL1        0.0103
     25 C          63.2558   81.7099   13.1184 C.ar    1  UNL1        0.0575
     26 CL         63.5665   80.6576   12.0955 Cl      1  UNL1       -0.0823
     27 C          62.1213   81.5100   14.0792 C.ar    1  UNL1        0.0129
     28 C          61.8106   82.5622   15.1020 C.ar    1  UNL1        0.0199
     29 C          62.6343   83.8142   15.1641 C.ar    1  UNL1        0.0839
     30 N          62.3236   84.8665   16.1870 N.ar    1  UNL1       -0.1889
     31 C          63.2122   85.2831   17.3213 C.ar    1  UNL1        0.2258
     32 N          62.5075   86.3610   18.0905 N.ar    1  UNL1       -0.1045
     33 N          61.1833   86.6106   17.4315 N.ar    1  UNL1       -0.0222
     34 N          61.0696   85.6869   16.2551 N.ar    1  UNL1       -0.0385
@<TRIPOS>BOND
     1     1     2    2
     2     2     3   am
     3     3    22    1
     4    22    23    1
     5    23    24   ar
     6    24    25   ar
     7    25    26    1
     8    25    27   ar
     9    27    28   ar
    10    28    29   ar
    11    29    30    1
    12    30    31   ar
    13    31    32   ar
    14    32    33   ar
    15    33    34   ar
    16     5     2    1
    17     5     6    1
    18     7     6    1
    19     7     8    1
    20     9     8    1
    21     9    10    1
    22    10    11   am
    23    11    12    2
    24    11    13    1
    25    13    14    1
    26    13    16    1
    27    16    17   ar
    28    17    18   ar
    29    18    19   ar
    30    19    20   ar
    31    20    21   ar
    32    29    23   ar
    33    34    30   ar
    34    10     5    1
    35    21    16   ar
    36     9     7    1
    37     3     4    1
    38    14    15    1
