@<TRIPOS>MOLECULE
*****
 29 32 0 0 0
SMALL
GASTEIGER

@<TRIPOS>ATOM
      1 C          64.0262   87.3914   14.3733 C.2     1  UNL1        0.2252
      2 O          63.5028   87.5233   12.9738 O.2     1  UNL1       -0.2750
      3 N          63.9789   88.5656   15.3056 N.am    1  UNL1       -0.3004
      4 H          64.3225   88.4790   16.2241 H       1  UNL1        0.1497
      5 C          64.5969   86.0852   14.8406 C.3     1  UNL1        0.1154
      6 C          63.4890   85.5389   16.4229 C.3     1  UNL1        0.0335
      7 C          63.6918   84.9124   15.0751 C.3     1  UNL1        0.1377
      8 C          64.0837   84.5311   13.6784 C.3     1  UNL1        0.0613
      9 C          63.3784   83.2535   13.3314 C.3     1  UNL1        0.1290
     10 C          62.6100   81.9815   13.1281 C.3     1  UNL1        0.0305
     11 C          62.7143   81.2420   11.8272 C.3     1  UNL1        0.0025
     12 C          63.5870   81.7746   10.7296 C.3     1  UNL1        0.0002
     13 C          64.3555   83.0466   10.9329 C.3     1  UNL1        0.0025
     14 C          64.2512   83.7860   12.2338 C.3     1  UNL1        0.0305
     15 O          62.5505   82.8452   14.5137 O.3     1  UNL1       -0.2256
     16 O          62.7441   83.8705   15.5915 O.3     1  UNL1       -0.2251
     17 C          63.4082   89.8717   14.8383 C.3     1  UNL1        0.1163
     18 C          64.1774   90.7235   13.8724 C.ar    1  UNL1       -0.0025
     19 C          63.6382   90.9684   12.4943 C.ar    1  UNL1       -0.0014
     20 C          64.4074   91.8202   11.5285 C.ar    1  UNL1        0.0142
     21 C          65.7156   92.4272   11.9408 C.ar    1  UNL1        0.0480
     22 C          66.2547   92.1823   13.3189 C.ar    1  UNL1        0.0142
     23 C          65.4856   91.3304   14.2848 C.ar    1  UNL1       -0.0014
     24 N          66.4848   93.2790   10.9749 N.pl3   1  UNL1       -0.3028
     25 C          66.2455   94.7589   10.9249 C.3     1  UNL1        0.1231
     26 C          67.0146   95.6108    9.9590 C.3     1  UNL1        0.1636
     27 O          68.0230   94.9826    9.0432 O.3     1  UNL1       -0.3501
     28 C          68.2622   93.5026    9.0933 C.3     1  UNL1        0.1636
     29 C          67.4930   92.6508   10.0591 C.3     1  UNL1        0.1231
@<TRIPOS>BOND
     1     6     7    1
     2     7     5    1
     3     5     1    1
     4     1     2    2
     5     1     3   am
     6     3    17    1
     7    17    18    1
     8    18    19   ar
     9    19    20   ar
    10    20    21   ar
    11    21    24    1
    12    24    25    1
    13    25    26    1
    14    26    27    1
    15    27    28    1
    16    28    29    1
    17    21    22   ar
    18    22    23   ar
    19     7     8    1
    20     8     9    1
    21     9    10    1
    22    10    11    1
    23    11    12    1
    24    12    13    1
    25    13    14    1
    26     9    15    1
    27    15    16    1
    28    16     7    1
    29    23    18   ar
    30    14     9    1
    31    29    24    1
    32     3     4    1
@<TRIPOS>MOLECULE
*****
 29 32 0 0 0
SMALL
GASTEIGER

@<TRIPOS>ATOM
      1 C          61.3520   88.5809   11.9025 C.2     1  UNL1        0.2252
      2 O          60.4651   89.7069   12.3442 O.2     1  UNL1       -0.2750
      3 N          62.7965   88.5610   12.3066 N.am    1  UNL1       -0.3004
      4 H          63.3787   87.8219   12.0166 H       1  UNL1        0.1497
      5 C          60.7946   87.4745   11.0566 C.3     1  UNL1        0.1154
      6 C          61.2001   88.0338    9.1718 C.3     1  UNL1        0.0335
      7 C          61.6390   86.8520    9.9845 C.3     1  UNL1        0.1377
      8 C          61.9014   85.8003   11.0214 C.3     1  UNL1        0.0613
      9 C          62.8162   84.7747   10.4202 C.3     1  UNL1        0.1290
     10 C          63.7283   83.8356    9.6880 C.3     1  UNL1        0.0305
     11 C          64.2487   82.6077   10.3746 C.3     1  UNL1        0.0025
     12 C          63.8571   82.3190   11.7935 C.3     1  UNL1        0.0002
     13 C          62.9450   83.2581   12.5258 C.3     1  UNL1        0.0025
     14 C          62.4246   84.4859   11.8391 C.3     1  UNL1        0.0305
     15 O          63.1193   85.1926    9.0118 O.3     1  UNL1       -0.2256
     16 O          62.3917   86.4765    8.7425 O.3     1  UNL1       -0.2251
     17 C          63.3539   89.6673   13.1524 C.3     1  UNL1        0.1163
     18 C          64.0527   90.8264   12.5059 C.ar    1  UNL1       -0.0025
     19 C          63.7591   91.1771   11.0773 C.ar    1  UNL1       -0.0014
     20 C          64.4579   92.3363   10.4307 C.ar    1  UNL1        0.0142
     21 C          65.4503   93.1447   11.2128 C.ar    1  UNL1        0.0480
     22 C          65.7438   92.7941   12.6413 C.ar    1  UNL1        0.0142
     23 C          65.0450   91.6349   13.2879 C.ar    1  UNL1       -0.0014
     24 N          66.1491   94.3039   10.5661 N.pl3   1  UNL1       -0.3028
     25 C          66.9069   94.1041    9.2872 C.3     1  UNL1        0.1231
     26 C          67.6057   95.2633    8.6406 C.3     1  UNL1        0.1636
     27 O          67.5466   96.6223    9.2730 O.3     1  UNL1       -0.3501
     28 C          66.7887   96.8220   10.5520 C.3     1  UNL1        0.1636
     29 C          66.0899   95.6628   11.1985 C.3     1  UNL1        0.1231
@<TRIPOS>BOND
     1     6     7    1
     2     7     5    1
     3     5     1    1
     4     1     2    2
     5     1     3   am
     6     3    17    1
     7    17    18    1
     8    18    19   ar
     9    19    20   ar
    10    20    21   ar
    11    21    24    1
    12    24    25    1
    13    25    26    1
    14    26    27    1
    15    27    28    1
    16    28    29    1
    17    21    22   ar
    18    22    23   ar
    19     7     8    1
    20     8     9    1
    21     9    10    1
    22    10    11    1
    23    11    12    1
    24    12    13    1
    25    13    14    1
    26     9    15    1
    27    15    16    1
    28    16     7    1
    29    23    18   ar
    30    14     9    1
    31    29    24    1
    32     3     4    1
@<TRIPOS>MOLECULE
*****
 29 32 0 0 0
SMALL
GASTEIGER

@<TRIPOS>ATOM
      1 C          60.5860   88.5472   10.4757 C.2     1  UNL1        0.2252
      2 O          59.7302   89.3477   11.4120 O.2     1  UNL1       -0.2750
      3 N          61.7695   89.1851    9.8106 N.am    1  UNL1       -0.3004
      4 H          62.3313   88.6597    9.1960 H       1  UNL1        0.1497
      5 C          60.2583   87.1087   10.2045 C.3     1  UNL1        0.1154
      6 C          60.4712   86.9722    8.2131 C.3     1  UNL1        0.0335
      7 C          61.1689   86.2810    9.3469 C.3     1  UNL1        0.1377
      8 C          61.6762   85.7628   10.6599 C.3     1  UNL1        0.0613
      9 C          62.7545   84.7592   10.3768 C.3     1  UNL1        0.1290
     10 C          63.8078   83.7841    9.9413 C.3     1  UNL1        0.0305
     11 C          64.5897   83.0172   10.9663 C.3     1  UNL1        0.0025
     12 C          64.3183   83.2255   12.4267 C.3     1  UNL1        0.0002
     13 C          63.2650   84.2006   12.8622 C.3     1  UNL1        0.0025
     14 C          62.4832   84.9675   11.8373 C.3     1  UNL1        0.0305
     15 O          62.9137   84.6572    8.8888 O.3     1  UNL1       -0.2256
     16 O          61.9337   85.5977    8.2522 O.3     1  UNL1       -0.2251
     17 C          62.0972   90.6235   10.0818 C.3     1  UNL1        0.1163
     18 C          63.1711   90.9750   11.0682 C.ar    1  UNL1       -0.0025
     19 C          64.2451   91.9520   10.6913 C.ar    1  UNL1       -0.0014
     20 C          65.3191   92.3035   11.6777 C.ar    1  UNL1        0.0142
     21 C          65.3191   91.6779   13.0410 C.ar    1  UNL1        0.0480
     22 C          64.2452   90.7010   13.4179 C.ar    1  UNL1        0.0142
     23 C          63.1711   90.3495   12.4315 C.ar    1  UNL1       -0.0014
     24 N          66.3931   92.0295   14.0275 N.pl3   1  UNL1       -0.3028
     25 C          66.0242   92.4613   15.4157 C.3     1  UNL1        0.1231
     26 C          67.0982   92.8128   16.4022 C.3     1  UNL1        0.1636
     27 O          68.5412   92.7324   16.0002 O.3     1  UNL1       -0.3501
     28 C          68.9100   92.3006   14.6118 C.3     1  UNL1        0.1636
     29 C          67.8360   91.9491   13.6255 C.3     1  UNL1        0.1231
@<TRIPOS>BOND
     1     6     7    1
     2     7     5    1
     3     5     1    1
     4     1     2    2
     5     1     3   am
     6     3    17    1
     7    17    18    1
     8    18    19   ar
     9    19    20   ar
    10    20    21   ar
    11    21    24    1
    12    24    25    1
    13    25    26    1
    14    26    27    1
    15    27    28    1
    16    28    29    1
    17    21    22   ar
    18    22    23   ar
    19     7     8    1
    20     8     9    1
    21     9    10    1
    22    10    11    1
    23    11    12    1
    24    12    13    1
    25    13    14    1
    26     9    15    1
    27    15    16    1
    28    16     7    1
    29    23    18   ar
    30    14     9    1
    31    29    24    1
    32     3     4    1
@<TRIPOS>MOLECULE
*****
 29 32 0 0 0
SMALL
GASTEIGER

@<TRIPOS>ATOM
      1 C          65.4927   92.2637   13.9425 C.2     1  UNL1        0.2252
      2 O          65.0855   92.0875   15.3752 O.2     1  UNL1       -0.2750
      3 N          64.6947   91.6148   12.8506 N.am    1  UNL1       -0.3004
      4 H          64.9620   91.7305   11.9102 H       1  UNL1        0.1497
      5 C          66.6980   93.0891   13.6014 C.3     1  UNL1        0.1154
      6 C          68.0394   91.7252   12.9930 C.3     1  UNL1        0.0335
      7 C          67.3994   92.8862   12.2912 C.3     1  UNL1        0.1377
      8 C          66.6129   94.0897   11.8634 C.3     1  UNL1        0.0613
      9 C          66.9620   94.3880   10.4353 C.3     1  UNL1        0.1290
     10 C          67.4075   94.5625    9.0137 C.3     1  UNL1        0.0305
     11 C          66.8519   95.6831    8.1858 C.3     1  UNL1        0.0025
     12 C          65.8507   96.6292    8.7796 C.3     1  UNL1        0.0002
     13 C          65.4052   96.4548   10.2012 C.3     1  UNL1        0.0025
     14 C          65.9609   95.3341   11.0291 C.3     1  UNL1        0.0305
     15 O          67.9643   93.3689    9.9806 O.3     1  UNL1       -0.2256
     16 O          68.2347   92.4407   11.1276 O.3     1  UNL1       -0.2251
     17 C          63.4895   90.7895   13.1916 C.3     1  UNL1        0.1163
     18 C          62.8748   89.8959   12.1555 C.ar    1  UNL1       -0.0025
     19 C          63.0636   88.4102   12.2391 C.ar    1  UNL1       -0.0014
     20 C          62.4488   87.5166   11.2029 C.ar    1  UNL1        0.0142
     21 C          61.6453   88.1087   10.0832 C.ar    1  UNL1        0.0480
     22 C          61.4566   89.5943    9.9997 C.ar    1  UNL1        0.0142
     23 C          62.0713   90.4880   11.0358 C.ar    1  UNL1       -0.0014
     24 N          61.0306   87.2150    9.0471 N.pl3   1  UNL1       -0.3028
     25 C          61.8448   86.1218    8.4213 C.3     1  UNL1        0.1231
     26 C          61.2301   85.2281    7.3851 C.3     1  UNL1        0.1636
     27 O          59.8011   85.4278    6.9749 O.3     1  UNL1       -0.3501
     28 C          58.9869   86.5211    7.6008 C.3     1  UNL1        0.1636
     29 C          59.6017   87.4147    8.6369 C.3     1  UNL1        0.1231
@<TRIPOS>BOND
     1     6     7    1
     2     7     5    1
     3     5     1    1
     4     1     2    2
     5     1     3   am
     6     3    17    1
     7    17    18    1
     8    18    19   ar
     9    19    20   ar
    10    20    21   ar
    11    21    24    1
    12    24    25    1
    13    25    26    1
    14    26    27    1
    15    27    28    1
    16    28    29    1
    17    21    22   ar
    18    22    23   ar
    19     7     8    1
    20     8     9    1
    21     9    10    1
    22    10    11    1
    23    11    12    1
    24    12    13    1
    25    13    14    1
    26     9    15    1
    27    15    16    1
    28    16     7    1
    29    23    18   ar
    30    14     9    1
    31    29    24    1
    32     3     4    1
@<TRIPOS>MOLECULE
*****
 29 32 0 0 0
SMALL
GASTEIGER

@<TRIPOS>ATOM
      1 C          65.2698   92.3355   14.2492 C.2     1  UNL1        0.2252
      2 O          64.2318   92.0194   13.2136 O.2     1  UNL1       -0.2750
      3 N          65.0841   91.8714   15.6635 N.am    1  UNL1       -0.3004
      4 H          65.7654   92.0788   16.3432 H       1  UNL1        0.1497
      5 C          66.4938   93.1158   13.8705 C.3     1  UNL1        0.1154
      6 C          67.7595   91.6491   13.3449 C.3     1  UNL1        0.0335
      7 C          67.2054   92.8172   12.5844 C.3     1  UNL1        0.1377
      8 C          66.5025   94.0477   12.0927 C.3     1  UNL1        0.0613
      9 C          66.8955   94.2655   10.6615 C.3     1  UNL1        0.1290
     10 C          67.3769   94.3541    9.2437 C.3     1  UNL1        0.0305
     11 C          66.9067   95.4716    8.3605 C.3     1  UNL1        0.0025
     12 C          65.9550   96.5004    8.8951 C.3     1  UNL1        0.0002
     13 C          65.4735   96.4118   10.3130 C.3     1  UNL1        0.0025
     14 C          65.9438   95.2943   11.1961 C.3     1  UNL1        0.0305
     15 O          67.8413   93.1695   10.2687 O.3     1  UNL1       -0.2256
     16 O          68.0328   92.2744   11.4571 O.3     1  UNL1       -0.2251
     17 C          63.8602   91.0911   16.0421 C.3     1  UNL1        0.1163
     18 C          63.8041   89.6139   15.7877 C.ar    1  UNL1       -0.0025
     19 C          64.3607   89.0505   14.5139 C.ar    1  UNL1       -0.0014
     20 C          64.3046   87.5733   14.2596 C.ar    1  UNL1        0.0142
     21 C          63.6919   86.6595   15.2791 C.ar    1  UNL1        0.0480
     22 C          63.1352   87.2229   16.5529 C.ar    1  UNL1        0.0142
     23 C          63.1913   88.7001   16.8073 C.ar    1  UNL1       -0.0014
     24 N          63.6358   85.1822   15.0247 N.pl3   1  UNL1       -0.3028
     25 C          64.7728   84.4980   14.3256 C.3     1  UNL1        0.1231
     26 C          64.7167   83.0207   14.0712 C.3     1  UNL1        0.1636
     27 O          63.5235   82.2278   14.5160 O.3     1  UNL1       -0.3501
     28 C          62.3865   82.9122   15.2152 C.3     1  UNL1        0.1636
     29 C          62.4426   84.3894   15.4695 C.3     1  UNL1        0.1231
@<TRIPOS>BOND
     1     6     7    1
     2     7     5    1
     3     5     1    1
     4     1     2    2
     5     1     3   am
     6     3    17    1
     7    17    18    1
     8    18    19   ar
     9    19    20   ar
    10    20    21   ar
    11    21    24    1
    12    24    25    1
    13    25    26    1
    14    26    27    1
    15    27    28    1
    16    28    29    1
    17    21    22   ar
    18    22    23   ar
    19     7     8    1
    20     8     9    1
    21     9    10    1
    22    10    11    1
    23    11    12    1
    24    12    13    1
    25    13    14    1
    26     9    15    1
    27    15    16    1
    28    16     7    1
    29    23    18   ar
    30    14     9    1
    31    29    24    1
    32     3     4    1
@<TRIPOS>MOLECULE
*****
 29 32 0 0 0
SMALL
GASTEIGER

@<TRIPOS>ATOM
      1 C          64.9808   92.0346   13.2859 C.2     1  UNL1        0.2252
      2 O          64.2673   91.7698   14.5783 O.2     1  UNL1       -0.2750
      3 N          64.4041   91.5345   11.9946 N.am    1  UNL1       -0.3004
      4 H          64.8725   91.7084   11.1462 H       1  UNL1        0.1497
      5 C          66.2712   92.7996   13.2846 C.3     1  UNL1        0.1154
      6 C          67.7722   91.5738   12.7608 C.3     1  UNL1        0.0335
      7 C          67.1633   92.7633   12.0793 C.3     1  UNL1        0.1377
      8 C          66.3679   93.9603   11.6498 C.3     1  UNL1        0.0613
      9 C          66.8957   94.4152   10.3213 C.3     1  UNL1        0.1290
     10 C          67.5260   94.7514    9.0024 C.3     1  UNL1        0.0305
     11 C          67.0209   95.9175    8.2054 C.3     1  UNL1        0.0025
     12 C          65.8856   96.7472    8.7274 C.3     1  UNL1        0.0002
     13 C          65.2553   96.4110   10.0463 C.3     1  UNL1        0.0025
     14 C          65.7604   95.2450   10.8433 C.3     1  UNL1        0.0305
     15 O          68.0173   93.4993    9.9299 O.3     1  UNL1       -0.2256
     16 O          68.1827   92.4783   11.0164 O.3     1  UNL1       -0.2251
     17 C          63.1138   90.7697   11.9959 C.3     1  UNL1        0.1163
     18 C          63.1236   89.2828   12.1935 C.ar    1  UNL1       -0.0025
     19 C          62.4334   88.3902   11.2050 C.ar    1  UNL1       -0.0014
     20 C          62.4432   86.9034   11.4026 C.ar    1  UNL1        0.0142
     21 C          63.1431   86.3090   12.5887 C.ar    1  UNL1        0.0480
     22 C          63.8333   87.2015   13.5771 C.ar    1  UNL1        0.0142
     23 C          63.8235   88.6884   13.3796 C.ar    1  UNL1       -0.0014
     24 N          63.1529   84.8220   12.7863 N.pl3   1  UNL1       -0.3028
     25 C          63.3977   84.2483   14.1504 C.3     1  UNL1        0.1231
     26 C          63.4074   82.7614   14.3479 C.3     1  UNL1        0.1636
     27 O          63.1723   81.8482   13.1812 O.3     1  UNL1       -0.3501
     28 C          62.9276   82.4221   11.8171 C.3     1  UNL1        0.1636
     29 C          62.9178   83.9090   11.6196 C.3     1  UNL1        0.1231
@<TRIPOS>BOND
     1     6     7    1
     2     7     5    1
     3     5     1    1
     4     1     2    2
     5     1     3   am
     6     3    17    1
     7    17    18    1
     8    18    19   ar
     9    19    20   ar
    10    20    21   ar
    11    21    24    1
    12    24    25    1
    13    25    26    1
    14    26    27    1
    15    27    28    1
    16    28    29    1
    17    21    22   ar
    18    22    23   ar
    19     7     8    1
    20     8     9    1
    21     9    10    1
    22    10    11    1
    23    11    12    1
    24    12    13    1
    25    13    14    1
    26     9    15    1
    27    15    16    1
    28    16     7    1
    29    23    18   ar
    30    14     9    1
    31    29    24    1
    32     3     4    1
@<TRIPOS>MOLECULE
*****
 29 32 0 0 0
SMALL
GASTEIGER

@<TRIPOS>ATOM
      1 C          64.3541   92.1595   11.1689 C.2     1  UNL1        0.2252
      2 O          63.9308   92.0138   12.6005 O.2     1  UNL1       -0.2750
      3 N          63.5584   91.5014   10.0808 N.am    1  UNL1       -0.3004
      4 H          63.8363   91.5971    9.1411 H       1  UNL1        0.1497
      5 C          65.5731   92.9634   10.8253 C.3     1  UNL1        0.1154
      6 C          67.1406   92.3082    9.7561 C.3     1  UNL1        0.0335
      7 C          66.9320   92.4758   11.2320 C.3     1  UNL1        0.1377
      8 C          66.4393   92.7454   12.6229 C.3     1  UNL1        0.0613
      9 C          67.5375   92.3894   13.5808 C.3     1  UNL1        0.1290
     10 C          68.7210   91.9937   14.4131 C.3     1  UNL1        0.0305
     11 C          68.6586   92.1073   15.9074 C.3     1  UNL1        0.0025
     12 C          67.4128   92.6167   16.5695 C.3     1  UNL1        0.0002
     13 C          66.2293   93.0125   15.7373 C.3     1  UNL1        0.0025
     14 C          66.2916   92.8988   14.2430 C.3     1  UNL1        0.0305
     15 O          68.7088   91.8998   12.7819 O.3     1  UNL1       -0.2256
     16 O          68.3346   91.9532   11.3302 O.3     1  UNL1       -0.2251
     17 C          62.3395   90.6976   10.4244 C.3     1  UNL1        0.1163
     18 C          62.4761   89.2526   10.8027 C.ar    1  UNL1       -0.0025
     19 C          63.0565   88.8775   12.1340 C.ar    1  UNL1       -0.0014
     20 C          63.1931   87.4324   12.5124 C.ar    1  UNL1        0.0142
     21 C          62.7494   86.3625   11.5593 C.ar    1  UNL1        0.0480
     22 C          62.1691   86.7375   10.2281 C.ar    1  UNL1        0.0142
     23 C          62.0324   88.1826    9.8497 C.ar    1  UNL1       -0.0014
     24 N          62.8861   84.9174   11.9377 N.pl3   1  UNL1       -0.3028
     25 C          62.6351   84.4855   13.3521 C.3     1  UNL1        0.1231
     26 C          62.7718   83.0404   13.7304 C.3     1  UNL1        0.1636
     27 O          63.1595   82.0273   12.6943 O.3     1  UNL1       -0.3501
     28 C          63.4104   82.4593   11.2800 C.3     1  UNL1        0.1636
     29 C          63.2737   83.9043   10.9017 C.3     1  UNL1        0.1231
@<TRIPOS>BOND
     1     6     7    1
     2     7     5    1
     3     5     1    1
     4     1     2    2
     5     1     3   am
     6     3    17    1
     7    17    18    1
     8    18    19   ar
     9    19    20   ar
    10    20    21   ar
    11    21    24    1
    12    24    25    1
    13    25    26    1
    14    26    27    1
    15    27    28    1
    16    28    29    1
    17    21    22   ar
    18    22    23   ar
    19     7     8    1
    20     8     9    1
    21     9    10    1
    22    10    11    1
    23    11    12    1
    24    12    13    1
    25    13    14    1
    26     9    15    1
    27    15    16    1
    28    16     7    1
    29    23    18   ar
    30    14     9    1
    31    29    24    1
    32     3     4    1
@<TRIPOS>MOLECULE
*****
 29 32 0 0 0
SMALL
GASTEIGER

@<TRIPOS>ATOM
      1 C          62.8402   84.9357   14.7145 C.2     1  UNL1        0.2252
      2 O          61.9944   85.1211   15.9393 O.2     1  UNL1       -0.2750
      3 N          63.7611   86.0315   14.2661 N.am    1  UNL1       -0.3004
      4 H          64.3163   85.9099   13.4622 H       1  UNL1        0.1497
      5 C          62.7650   83.6544   13.9380 C.3     1  UNL1        0.1154
      6 C          64.3563   82.5467   13.4179 C.3     1  UNL1        0.0335
      7 C          63.5124   83.5164   12.6449 C.3     1  UNL1        0.1377
      8 C          62.5123   84.5149   12.1422 C.3     1  UNL1        0.0613
      9 C          62.8180   84.7913   10.6998 C.3     1  UNL1        0.1290
     10 C          63.2423   84.9658    9.2718 C.3     1  UNL1        0.0305
     11 C          62.4908   85.9050    8.3755 C.3     1  UNL1        0.0025
     12 C          61.3151   86.6697    8.9074 C.3     1  UNL1        0.0002
     13 C          60.8908   86.4952   10.3355 C.3     1  UNL1        0.0025
     14 C          61.6422   85.5560   11.2317 C.3     1  UNL1        0.0305
     15 O          64.0070   83.9636   10.3112 O.3     1  UNL1       -0.2256
     16 O          64.4362   83.1756   11.5133 O.3     1  UNL1       -0.2251
     17 C          63.8362   87.3127   15.0426 C.3     1  UNL1        0.1163
     18 C          64.2090   88.5893   14.3489 C.ar    1  UNL1       -0.0025
     19 C          63.5925   88.9312   13.0249 C.ar    1  UNL1       -0.0014
     20 C          63.9653   90.2078   12.3312 C.ar    1  UNL1        0.0142
     21 C          64.9546   91.1426   12.9616 C.ar    1  UNL1        0.0480
     22 C          65.5711   90.8008   14.2855 C.ar    1  UNL1        0.0142
     23 C          65.1983   89.5241   14.9793 C.ar    1  UNL1       -0.0014
     24 N          65.3274   92.4193   12.2678 N.pl3   1  UNL1       -0.3028
     25 C          65.9954   93.5220   13.0344 C.3     1  UNL1        0.1231
     26 C          66.3682   94.7987   12.3406 C.3     1  UNL1        0.1636
     27 O          66.0728   94.9725   10.8802 O.3     1  UNL1       -0.3501
     28 C          65.4047   93.8697   10.1137 C.3     1  UNL1        0.1636
     29 C          65.0320   92.5931   10.8075 C.3     1  UNL1        0.1231
@<TRIPOS>BOND
     1     6     7    1
     2     7     5    1
     3     5     1    1
     4     1     2    2
     5     1     3   am
     6     3    17    1
     7    17    18    1
     8    18    19   ar
     9    19    20   ar
    10    20    21   ar
    11    21    24    1
    12    24    25    1
    13    25    26    1
    14    26    27    1
    15    27    28    1
    16    28    29    1
    17    21    22   ar
    18    22    23   ar
    19     7     8    1
    20     8     9    1
    21     9    10    1
    22    10    11    1
    23    11    12    1
    24    12    13    1
    25    13    14    1
    26     9    15    1
    27    15    16    1
    28    16     7    1
    29    23    18   ar
    30    14     9    1
    31    29    24    1
    32     3     4    1
@<TRIPOS>MOLECULE
*****
 29 32 0 0 0
SMALL
GASTEIGER

@<TRIPOS>ATOM
      1 C          62.3178   83.7044   14.9554 C.2     1  UNL1        0.2252
      2 O          61.2636   84.7222   14.6352 O.2     1  UNL1       -0.2750
      3 N          63.3147   83.9738   16.0434 N.am    1  UNL1       -0.3004
      4 H          64.0066   83.3058   16.2535 H       1  UNL1        0.1497
      5 C          62.3753   82.4171   14.1874 C.3     1  UNL1        0.1154
      6 C          63.9128   81.1540   13.9216 C.3     1  UNL1        0.0335
      7 C          63.3594   82.2556   13.0670 C.3     1  UNL1        0.1377
      8 C          62.6003   83.3909   12.4466 C.3     1  UNL1        0.0613
      9 C          63.2309   83.7008   11.1213 C.3     1  UNL1        0.1290
     10 C          63.9628   83.8948    9.8265 C.3     1  UNL1        0.0305
     11 C          63.5220   84.9612    8.8682 C.3     1  UNL1        0.0025
     12 C          62.3492   85.8337    9.2047 C.3     1  UNL1        0.0002
     13 C          61.6172   85.6397   10.4995 C.3     1  UNL1        0.0025
     14 C          62.0580   84.5733   11.4578 C.3     1  UNL1        0.0305
     15 O          64.3797   82.7570   10.9226 O.3     1  UNL1       -0.2256
     16 O          64.4591   81.8638   12.1251 O.3     1  UNL1       -0.2251
     17 C          63.2572   85.2611   16.8113 C.3     1  UNL1        0.1163
     18 C          63.5997   86.5546   16.1335 C.ar    1  UNL1       -0.0025
     19 C          63.2027   87.8581   16.7606 C.ar    1  UNL1       -0.0014
     20 C          63.5452   89.1516   16.0828 C.ar    1  UNL1        0.0142
     21 C          64.2849   89.1417   14.7779 C.ar    1  UNL1        0.0480
     22 C          64.6819   87.8383   14.1508 C.ar    1  UNL1        0.0142
     23 C          64.3394   86.5447   14.8286 C.ar    1  UNL1       -0.0014
     24 N          64.6274   90.4353   14.1001 N.pl3   1  UNL1       -0.3028
     25 C          64.0060   90.7769   12.7784 C.3     1  UNL1        0.1231
     26 C          64.3486   92.0705   12.1006 C.3     1  UNL1        0.1636
     27 O          65.3126   93.0224   12.7447 O.3     1  UNL1       -0.3501
     28 C          65.9339   92.6807   14.0665 C.3     1  UNL1        0.1636
     29 C          65.5913   91.3871   14.7442 C.3     1  UNL1        0.1231
@<TRIPOS>BOND
     1     6     7    1
     2     7     5    1
     3     5     1    1
     4     1     2    2
     5     1     3   am
     6     3    17    1
     7    17    18    1
     8    18    19   ar
     9    19    20   ar
    10    20    21   ar
    11    21    24    1
    12    24    25    1
    13    25    26    1
    14    26    27    1
    15    27    28    1
    16    28    29    1
    17    21    22   ar
    18    22    23   ar
    19     7     8    1
    20     8     9    1
    21     9    10    1
    22    10    11    1
    23    11    12    1
    24    12    13    1
    25    13    14    1
    26     9    15    1
    27    15    16    1
    28    16     7    1
    29    23    18   ar
    30    14     9    1
    31    29    24    1
    32     3     4    1
