@<TRIPOS>MOLECULE
*****
 39 42 0 0 0
SMALL
GASTEIGER

@<TRIPOS>ATOM
      1 N          63.1603   85.5742   14.2865 N.am    1  UNL1       -0.2781
      2 C          64.2989   86.4033   14.8028 C.2     1  UNL1        0.2686
      3 O          65.6590   85.7918   14.9642 O.2     1  UNL1       -0.2681
      4 H          62.2676   85.9755   14.1805 H       1  UNL1        0.1553
      5 C          64.0772   87.8437   15.1576 C.ar    1  UNL1        0.1507
      6 N          64.6559   88.9261   14.2954 N.ar    1  UNL1       -0.2206
      7 C          64.4342   90.3666   14.6502 C.ar    1  UNL1        0.1668
      8 N          63.6338   90.7247   15.8672 N.ar    1  UNL1       -0.2236
      9 C          63.0551   89.6422   16.7295 C.ar    1  UNL1        0.1163
     10 C          63.2767   88.2018   16.3747 C.ar    1  UNL1        0.0834
     11 N          62.6981   87.1193   17.2369 N.pl3   1  UNL1       -0.3545
     12 H          62.1727   87.3543   18.0357 H       1  UNL1        0.1424
     13 H          62.8436   86.1739   17.0040 H       1  UNL1        0.1424
     14 C          65.0129   91.4490   13.7880 C.ar    1  UNL1        0.0906
     15 C          64.5920   91.5707   12.3533 C.ar    1  UNL1        0.1452
     16 F          63.5924   90.6098   11.7810 F       1  UNL1       -0.2040
     17 C          65.1707   92.6531   11.4911 C.ar    1  UNL1        0.0299
     18 C          66.1703   93.6139   12.0635 C.ar    1  UNL1        0.0046
     19 C          66.5912   93.4923   13.4980 C.ar    1  UNL1        0.0299
     20 C          66.0125   92.4099   14.3603 C.ar    1  UNL1        0.1452
     21 F          66.4334   92.2883   15.7949 F       1  UNL1       -0.2040
     22 C          63.0716   83.6459   12.5477 C.ar    1  UNL1       -0.0059
     23 C          63.2933   82.2054   12.1929 C.ar    1  UNL1        0.0176
     24 C          63.8253   81.2528   13.2221 C.ar    1  UNL1        0.0987
     25 N          64.1357   81.7406   14.6062 N.ar    1  UNL1       -0.2410
     26 C          63.9141   83.1811   14.9610 C.ar    1  UNL1        0.1132
     27 C          63.3820   84.1337   13.9317 C.ar    1  UNL1        0.0660
     28 C          62.7848   85.2349    7.6088 C.3     1  UNL1        0.0025
     29 C          62.3962   85.3930    9.0489 C.3     1  UNL1        0.0273
     30 C          62.9282   84.4404   10.0782 C.3     1  UNL1        0.0069
     31 C          62.5395   84.5985   11.5183 C.3     1  UNL1        0.0262
     32 C          61.6189   85.7092   11.9291 C.3     1  UNL1        0.0360
     33 C          61.0869   86.6617   10.8998 C.3     1  UNL1        0.1352
     34 O          60.1662   87.7725   11.3106 O.3     1  UNL1       -0.3821
     35 C          61.4755   86.5036    9.4597 C.3     1  UNL1        0.1128
     36 C          60.5820   87.7042    9.3581 C.3     1  UNL1        0.0318
     37 O          61.5538   86.7626    7.9843 O.3     1  UNL1       -0.3844
     38 H          59.9173   88.2915   10.5299 H       1  UNL1        0.2104
     39 H          61.0091   87.5338    7.7620 H       1  UNL1        0.2103
@<TRIPOS>BOND
     1    29    28    1
     2    29    30    1
     3    30    31    1
     4    31    22    1
     5    22    23   ar
     6    23    24   ar
     7    24    25   ar
     8    25    26   ar
     9    26    27   ar
    10    27     1    1
    11     1     2   am
    12     2     3    2
    13     2     5    1
    14     5     6   ar
    15     6     7   ar
    16     7    14    1
    17    14    15   ar
    18    15    16    1
    19    15    17   ar
    20    17    18   ar
    21    18    19   ar
    22    19    20   ar
    23    20    21    1
    24     7     8   ar
    25     8     9   ar
    26     9    10   ar
    27    10    11    1
    28    31    32    1
    29    32    33    1
    30    33    34    1
    31    33    35    1
    32    35    36    1
    33    35    37    1
    34    35    29    1
    35    27    22   ar
    36    10     5   ar
    37    20    14   ar
    38     1     4    1
    39    11    12    1
    40    11    13    1
    41    34    38    1
    42    37    39    1
@<TRIPOS>MOLECULE
*****
 39 42 0 0 0
SMALL
GASTEIGER

@<TRIPOS>ATOM
      1 N          62.3818   89.0084    9.9326 N.am    1  UNL1       -0.2781
      2 C          62.1409   90.1411   10.8861 C.2     1  UNL1        0.2686
      3 O          60.7402   90.5945   11.1735 O.2     1  UNL1       -0.2681
      4 H          63.3011   88.7108    9.7440 H       1  UNL1        0.1553
      5 C          63.3006   90.8204   11.5520 C.ar    1  UNL1        0.1507
      6 N          64.2813   91.6057   10.7325 N.ar    1  UNL1       -0.2206
      7 C          65.4410   92.2850   11.3985 C.ar    1  UNL1        0.1668
      8 N          65.6202   92.1790   12.8839 N.ar    1  UNL1       -0.2236
      9 C          64.6395   91.3937   13.7035 C.ar    1  UNL1        0.1163
     10 C          63.4797   90.7144   13.0376 C.ar    1  UNL1        0.0834
     11 N          62.4991   89.9291   13.8571 N.pl3   1  UNL1       -0.3545
     12 H          62.6166   89.8596   14.8320 H       1  UNL1        0.1424
     13 H          61.7379   89.4833   13.4200 H       1  UNL1        0.1424
     14 C          66.4217   93.0703   10.5790 C.ar    1  UNL1        0.0906
     15 C          66.1188   94.4911   10.2052 C.ar    1  UNL1        0.1452
     16 F          64.8353   95.1265   10.6510 F       1  UNL1       -0.2040
     17 C          67.0995   95.2763    9.3857 C.ar    1  UNL1        0.0299
     18 C          68.3830   94.6409    8.9399 C.ar    1  UNL1        0.0046
     19 C          68.6859   93.2201    9.3136 C.ar    1  UNL1        0.0299
     20 C          67.7052   92.4348   10.1332 C.ar    1  UNL1        0.1452
     21 F          68.0081   91.0141   10.5069 F       1  UNL1       -0.2040
     22 C          61.0020   86.8581    9.4610 C.ar    1  UNL1       -0.0059
     23 C          59.8423   86.1788    8.7950 C.ar    1  UNL1        0.0176
     24 C          58.9025   86.9704    7.9348 C.ar    1  UNL1        0.0987
     25 N          59.1225   88.4415    7.7404 N.ar    1  UNL1       -0.2410
     26 C          60.2823   89.1208    8.4064 C.ar    1  UNL1        0.1132
     27 C          61.2220   88.3291    9.2667 C.ar    1  UNL1        0.0660
     28 C          64.2580   82.8539   10.0655 C.3     1  UNL1        0.0025
     29 C          63.5698   84.0643   10.6235 C.3     1  UNL1        0.0273
     30 C          62.6300   84.8560    9.7633 C.3     1  UNL1        0.0069
     31 C          61.9418   86.0663   10.3213 C.3     1  UNL1        0.0262
     32 C          62.1933   86.4850   11.7395 C.3     1  UNL1        0.0360
     33 C          63.1330   85.6932   12.5998 C.3     1  UNL1        0.1352
     34 O          63.3845   86.1118   14.0181 O.3     1  UNL1       -0.3821
     35 C          63.8212   84.4829   12.0417 C.3     1  UNL1        0.1128
     36 C          64.3790   84.4809   13.4342 C.3     1  UNL1        0.0318
     37 O          64.7032   83.2719   11.9674 O.3     1  UNL1       -0.3844
     38 H          64.0118   85.4973   14.4302 H       1  UNL1        0.2104
     39 H          65.1438   83.1398   12.8214 H       1  UNL1        0.2103
@<TRIPOS>BOND
     1    29    28    1
     2    29    30    1
     3    30    31    1
     4    31    22    1
     5    22    23   ar
     6    23    24   ar
     7    24    25   ar
     8    25    26   ar
     9    26    27   ar
    10    27     1    1
    11     1     2   am
    12     2     3    2
    13     2     5    1
    14     5     6   ar
    15     6     7   ar
    16     7    14    1
    17    14    15   ar
    18    15    16    1
    19    15    17   ar
    20    17    18   ar
    21    18    19   ar
    22    19    20   ar
    23    20    21    1
    24     7     8   ar
    25     8     9   ar
    26     9    10   ar
    27    10    11    1
    28    31    32    1
    29    32    33    1
    30    33    34    1
    31    33    35    1
    32    35    36    1
    33    35    37    1
    34    35    29    1
    35    27    22   ar
    36    10     5   ar
    37    20    14   ar
    38     1     4    1
    39    11    12    1
    40    11    13    1
    41    34    38    1
    42    37    39    1
@<TRIPOS>MOLECULE
*****
 39 42 0 0 0
SMALL
GASTEIGER

@<TRIPOS>ATOM
      1 N          63.3931   86.4187   13.1958 N.am    1  UNL1       -0.2781
      2 C          64.1026   86.7714   14.4695 C.2     1  UNL1        0.2686
      3 O          64.9021   85.7306   15.1957 O.2     1  UNL1       -0.2681
      4 H          62.8683   87.1018   12.7192 H       1  UNL1        0.1553
      5 C          64.0126   88.1651   15.0169 C.ar    1  UNL1        0.1507
      6 N          64.6492   89.3040   14.2770 N.ar    1  UNL1       -0.2206
      7 C          64.5592   90.6977   14.8244 C.ar    1  UNL1        0.1668
      8 N          63.8326   90.9524   16.1117 N.ar    1  UNL1       -0.2236
      9 C          63.1960   89.8134   16.8517 C.ar    1  UNL1        0.1163
     10 C          63.2860   88.4197   16.3042 C.ar    1  UNL1        0.0834
     11 N          62.6493   87.2808   17.0441 N.pl3   1  UNL1       -0.3545
     12 H          62.1724   87.4479   17.8890 H       1  UNL1        0.1424
     13 H          62.7084   86.3661   16.6848 H       1  UNL1        0.1424
     14 C          65.1959   91.8366   14.0846 C.ar    1  UNL1        0.0906
     15 C          64.9487   92.0079   12.6150 C.ar    1  UNL1        0.1452
     16 F          64.0649   91.0402   11.8853 F       1  UNL1       -0.2040
     17 C          65.5853   93.1469   11.8751 C.ar    1  UNL1        0.0299
     18 C          66.4691   94.1146   12.6047 C.ar    1  UNL1        0.0046
     19 C          66.7163   93.9434   14.0743 C.ar    1  UNL1        0.0299
     20 C          66.0797   92.8044   14.8142 C.ar    1  UNL1        0.1452
     21 F          66.3269   92.6331   16.2837 F       1  UNL1       -0.2040
     22 C          62.8439   84.6934   11.3325 C.ar    1  UNL1       -0.0059
     23 C          62.9339   83.2997   10.7851 C.ar    1  UNL1        0.0176
     24 C          63.6630   82.2377   11.5536 C.ar    1  UNL1        0.0987
     25 N          64.3022   82.5694   12.8695 N.ar    1  UNL1       -0.2410
     26 C          64.2122   83.9630   13.4169 C.ar    1  UNL1        0.1132
     27 C          63.4830   85.0250   12.6484 C.ar    1  UNL1        0.0660
     28 C          61.8159   89.7114   10.4589 C.3     1  UNL1        0.0025
     29 C          61.6008   88.2644   10.1272 C.3     1  UNL1        0.0273
     30 C          62.3299   87.2024   10.8957 C.3     1  UNL1        0.0069
     31 C          62.1148   85.7554   10.5640 C.3     1  UNL1        0.0262
     32 C          61.1706   85.3704    9.4639 C.3     1  UNL1        0.0360
     33 C          60.4415   86.4324    8.6955 C.3     1  UNL1        0.1352
     34 O          59.4973   86.0475    7.5953 O.3     1  UNL1       -0.3821
     35 C          60.6566   87.8794    9.0271 C.3     1  UNL1        0.1128
     36 C          59.6679   88.0131    7.9071 C.3     1  UNL1        0.0318
     37 O          60.5283   89.3728    8.9697 O.3     1  UNL1       -0.3844
     38 H          59.1128   86.8477    7.2044 H       1  UNL1        0.2104
     39 H          59.9023   89.6169    8.2701 H       1  UNL1        0.2103
@<TRIPOS>BOND
     1    29    28    1
     2    29    30    1
     3    30    31    1
     4    31    22    1
     5    22    23   ar
     6    23    24   ar
     7    24    25   ar
     8    25    26   ar
     9    26    27   ar
    10    27     1    1
    11     1     2   am
    12     2     3    2
    13     2     5    1
    14     5     6   ar
    15     6     7   ar
    16     7    14    1
    17    14    15   ar
    18    15    16    1
    19    15    17   ar
    20    17    18   ar
    21    18    19   ar
    22    19    20   ar
    23    20    21    1
    24     7     8   ar
    25     8     9   ar
    26     9    10   ar
    27    10    11    1
    28    31    32    1
    29    32    33    1
    30    33    34    1
    31    33    35    1
    32    35    36    1
    33    35    37    1
    34    35    29    1
    35    27    22   ar
    36    10     5   ar
    37    20    14   ar
    38     1     4    1
    39    11    12    1
    40    11    13    1
    41    34    38    1
    42    37    39    1
@<TRIPOS>MOLECULE
*****
 39 42 0 0 0
SMALL
GASTEIGER

@<TRIPOS>ATOM
      1 N          64.0445   86.7328   13.2844 N.am    1  UNL1       -0.2781
      2 C          63.8747   87.8139   14.3103 C.2     1  UNL1        0.2686
      3 O          63.4195   87.4672   15.6969 O.2     1  UNL1       -0.2681
      4 H          64.3432   86.9603   12.3743 H       1  UNL1        0.1553
      5 C          64.1601   89.2416   13.9496 C.ar    1  UNL1        0.1507
      6 N          65.3827   89.9218   14.4904 N.ar    1  UNL1       -0.2206
      7 C          65.6682   91.3495   14.1297 C.ar    1  UNL1        0.1668
      8 N          64.7310   92.0971   13.2282 N.ar    1  UNL1       -0.2236
      9 C          63.5083   91.4169   12.6873 C.ar    1  UNL1        0.1163
     10 C          63.2228   89.9891   13.0480 C.ar    1  UNL1        0.0834
     11 N          62.0002   89.3090   12.5072 N.pl3   1  UNL1       -0.3545
     12 H          61.3851   89.7996   11.9155 H       1  UNL1        0.1424
     13 H          61.8129   88.3719   12.7440 H       1  UNL1        0.1424
     14 C          66.8908   92.0297   14.6705 C.ar    1  UNL1        0.0906
     15 C          68.1659   92.0198   13.8805 C.ar    1  UNL1        0.1452
     16 F          68.2183   91.3298   12.5497 F       1  UNL1       -0.2040
     17 C          69.3885   92.7000   14.4213 C.ar    1  UNL1        0.0299
     18 C          69.3361   93.3901   15.7521 C.ar    1  UNL1        0.0046
     19 C          68.0611   93.3999   16.5421 C.ar    1  UNL1        0.0299
     20 C          66.8383   92.7197   16.0013 C.ar    1  UNL1        0.1452
     21 F          65.5633   92.7296   16.7913 F       1  UNL1       -0.2040
     22 C          62.9265   84.4532   12.7334 C.ar    1  UNL1       -0.0059
     23 C          62.6410   83.0254   13.0941 C.ar    1  UNL1        0.0176
     24 C          63.1882   82.4496   14.3665 C.ar    1  UNL1        0.0987
     25 N          64.0208   83.3014   15.2782 N.ar    1  UNL1       -0.2410
     26 C          64.3062   84.7291   14.9175 C.ar    1  UNL1        0.1132
     27 C          63.7590   85.3050   13.6451 C.ar    1  UNL1        0.0660
     28 C          62.9134   84.6934    7.5428 C.3     1  UNL1        0.0025
     29 C          62.3727   85.1491    8.8657 C.3     1  UNL1        0.0273
     30 C          62.9199   84.5733   10.1381 C.3     1  UNL1        0.0069
     31 C          62.3793   85.0291   11.4610 C.3     1  UNL1        0.0262
     32 C          61.2915   86.0606   11.5115 C.3     1  UNL1        0.0360
     33 C          60.7444   86.6365   10.2391 C.3     1  UNL1        0.1352
     34 O          59.6566   87.6681   10.2895 O.3     1  UNL1       -0.3821
     35 C          61.2850   86.1807    8.9162 C.3     1  UNL1        0.1128
     36 C          60.2615   87.1738    8.4512 C.3     1  UNL1        0.0318
     37 O          61.4701   86.0699    7.4318 O.3     1  UNL1       -0.3844
     38 H          59.4198   87.9327    9.3869 H       1  UNL1        0.2104
     39 H          60.8565   86.6728    6.9836 H       1  UNL1        0.2103
@<TRIPOS>BOND
     1    29    28    1
     2    29    30    1
     3    30    31    1
     4    31    22    1
     5    22    23   ar
     6    23    24   ar
     7    24    25   ar
     8    25    26   ar
     9    26    27   ar
    10    27     1    1
    11     1     2   am
    12     2     3    2
    13     2     5    1
    14     5     6   ar
    15     6     7   ar
    16     7    14    1
    17    14    15   ar
    18    15    16    1
    19    15    17   ar
    20    17    18   ar
    21    18    19   ar
    22    19    20   ar
    23    20    21    1
    24     7     8   ar
    25     8     9   ar
    26     9    10   ar
    27    10    11    1
    28    31    32    1
    29    32    33    1
    30    33    34    1
    31    33    35    1
    32    35    36    1
    33    35    37    1
    34    35    29    1
    35    27    22   ar
    36    10     5   ar
    37    20    14   ar
    38     1     4    1
    39    11    12    1
    40    11    13    1
    41    34    38    1
    42    37    39    1
@<TRIPOS>MOLECULE
*****
 39 42 0 0 0
SMALL
GASTEIGER

@<TRIPOS>ATOM
      1 N          62.3496   88.9869    9.8712 N.am    1  UNL1       -0.2781
      2 C          62.1075   90.1218   10.8219 C.2     1  UNL1        0.2686
      3 O          60.7073   90.5839   11.0972 O.2     1  UNL1       -0.2681
      4 H          63.2686   88.6836    9.6905 H       1  UNL1        0.1553
      5 C          63.2657   90.7945   11.4972 C.ar    1  UNL1        0.1507
      6 N          64.2481   91.5880   10.6877 N.ar    1  UNL1       -0.2206
      7 C          65.4063   92.2607   11.3630 C.ar    1  UNL1        0.1668
      8 N          65.5822   92.1398   12.8477 N.ar    1  UNL1       -0.2236
      9 C          64.5998   91.3463   13.6572 C.ar    1  UNL1        0.1163
     10 C          63.4416   90.6736   12.9820 C.ar    1  UNL1        0.0834
     11 N          62.4592   89.8800   13.7914 N.pl3   1  UNL1       -0.3545
     12 H          62.5746   89.8007   14.7659 H       1  UNL1        0.1424
     13 H          61.6990   89.4385   13.3481 H       1  UNL1        0.1424
     14 C          66.3887   93.0542   10.5536 C.ar    1  UNL1        0.0906
     15 C          67.6792   92.4275   10.1155 C.ar    1  UNL1        0.1452
     16 F          67.9872   91.0072   10.4868 F       1  UNL1       -0.2040
     17 C          68.6615   93.2210    9.3060 C.ar    1  UNL1        0.0299
     18 C          68.3535   94.6413    8.9347 C.ar    1  UNL1        0.0046
     19 C          67.0631   95.2681    9.3728 C.ar    1  UNL1        0.0299
     20 C          66.0806   94.4745   10.1823 C.ar    1  UNL1        0.1452
     21 F          64.7902   95.1013   10.6204 F       1  UNL1       -0.2040
     22 C          60.9836   86.8375    9.3573 C.ar    1  UNL1       -0.0059
     23 C          59.8254   86.1648    8.6820 C.ar    1  UNL1        0.0176
     24 C          58.8749   86.9689    7.8453 C.ar    1  UNL1        0.0987
     25 N          59.0827   88.4457    7.6839 N.ar    1  UNL1       -0.2410
     26 C          60.2409   89.1184    8.3592 C.ar    1  UNL1        0.1132
     27 C          61.1914   88.3142    9.1959 C.ar    1  UNL1        0.0660
     28 C          63.4789   86.0670   13.8495 C.3     1  UNL1        0.0025
     29 C          63.1817   85.6482   12.4402 C.3     1  UNL1        0.0273
     30 C          62.2313   86.4522   11.6034 C.3     1  UNL1        0.0069
     31 C          61.9341   86.0334   10.1941 C.3     1  UNL1        0.0262
     32 C          62.5873   84.8106    9.6215 C.3     1  UNL1        0.0360
     33 C          63.5377   84.0066   10.4582 C.3     1  UNL1        0.1352
     34 O          64.1910   82.7836    9.8856 O.3     1  UNL1       -0.3821
     35 C          63.8349   84.4254   11.8676 C.3     1  UNL1        0.1128
     36 C          64.6951   83.2002   11.7730 C.3     1  UNL1        0.0318
     37 O          64.4309   84.4186   13.2441 O.3     1  UNL1       -0.3844
     38 H          64.7710   82.3844   10.5528 H       1  UNL1        0.2104
     39 H          65.0278   83.6593   13.3342 H       1  UNL1        0.2103
@<TRIPOS>BOND
     1    29    28    1
     2    29    30    1
     3    30    31    1
     4    31    22    1
     5    22    23   ar
     6    23    24   ar
     7    24    25   ar
     8    25    26   ar
     9    26    27   ar
    10    27     1    1
    11     1     2   am
    12     2     3    2
    13     2     5    1
    14     5     6   ar
    15     6     7   ar
    16     7    14    1
    17    14    15   ar
    18    15    16    1
    19    15    17   ar
    20    17    18   ar
    21    18    19   ar
    22    19    20   ar
    23    20    21    1
    24     7     8   ar
    25     8     9   ar
    26     9    10   ar
    27    10    11    1
    28    31    32    1
    29    32    33    1
    30    33    34    1
    31    33    35    1
    32    35    36    1
    33    35    37    1
    34    35    29    1
    35    27    22   ar
    36    10     5   ar
    37    20    14   ar
    38     1     4    1
    39    11    12    1
    40    11    13    1
    41    34    38    1
    42    37    39    1
@<TRIPOS>MOLECULE
*****
 39 42 0 0 0
SMALL
GASTEIGER

@<TRIPOS>ATOM
      1 N          62.9861   87.5314   12.4885 N.am    1  UNL1       -0.2781
      2 C          63.6889   87.0027   13.7036 C.2     1  UNL1        0.2686
      3 O          64.5918   87.8996   14.4975 O.2     1  UNL1       -0.2681
      4 H          62.3934   86.9427   11.9674 H       1  UNL1        0.1553
      5 C          63.4889   85.5770   14.1249 C.ar    1  UNL1        0.1507
      6 N          63.4183   84.4924   13.0912 N.ar    1  UNL1       -0.2206
      7 C          63.2182   83.0667   13.5124 C.ar    1  UNL1        0.1668
      8 N          63.0887   82.7257   14.9673 N.ar    1  UNL1       -0.2236
      9 C          63.1593   83.8103   16.0011 C.ar    1  UNL1        0.1163
     10 C          63.3594   85.2360   15.5799 C.ar    1  UNL1        0.0834
     11 N          63.4300   86.3206   16.6136 N.pl3   1  UNL1       -0.3545
     12 H          63.3450   86.0968   17.5685 H       1  UNL1        0.1424
     13 H          63.5613   87.2563   16.3371 H       1  UNL1        0.1424
     14 C          63.1476   81.9821   12.4787 C.ar    1  UNL1        0.0906
     15 C          62.5964   80.6350   12.8414 C.ar    1  UNL1        0.1452
     16 F          62.1157   80.3726   14.2379 F       1  UNL1       -0.2040
     17 C          62.5258   79.5504   11.8077 C.ar    1  UNL1        0.0299
     18 C          63.0064   79.8128   10.4113 C.ar    1  UNL1        0.0046
     19 C          63.5576   81.1598   10.0485 C.ar    1  UNL1        0.0299
     20 C          63.6282   82.2445   11.0822 C.ar    1  UNL1        0.1452
     21 F          64.1795   83.5915   10.7194 F       1  UNL1       -0.2040
     22 C          62.6919   89.4201   10.7289 C.ar    1  UNL1       -0.0059
     23 C          62.8919   90.8457   10.3077 C.ar    1  UNL1        0.0176
     24 C          63.5863   91.8084   11.2248 C.ar    1  UNL1        0.0987
     25 N          64.0806   91.3454   12.5632 N.ar    1  UNL1       -0.2410
     26 C          63.8805   89.9197   12.9845 C.ar    1  UNL1        0.1132
     27 C          63.1861   88.9570   12.0672 C.ar    1  UNL1        0.0660
     28 C          62.6827   84.9688    8.0482 C.3     1  UNL1        0.0025
     29 C          61.9930   86.2318    8.4714 C.3     1  UNL1        0.0273
     30 C          62.6872   87.1944    9.3885 C.3     1  UNL1        0.0069
     31 C          61.9975   88.4574    9.8117 C.3     1  UNL1        0.0262
     32 C          60.6134   88.7578    9.3177 C.3     1  UNL1        0.0360
     33 C          59.9191   87.7951    8.4005 C.3     1  UNL1        0.1352
     34 O          58.5350   88.0955    7.9064 O.3     1  UNL1       -0.3821
     35 C          60.6089   86.5321    7.9773 C.3     1  UNL1        0.1128
     36 C          59.3074   86.3749    7.2484 C.3     1  UNL1        0.0318
     37 O          60.8466   85.2146    7.3010 O.3     1  UNL1       -0.3844
     38 H          58.2350   87.3768    7.3281 H       1  UNL1        0.2104
     39 H          60.0665   84.9749    6.7767 H       1  UNL1        0.2103
@<TRIPOS>BOND
     1    29    28    1
     2    29    30    1
     3    30    31    1
     4    31    22    1
     5    22    23   ar
     6    23    24   ar
     7    24    25   ar
     8    25    26   ar
     9    26    27   ar
    10    27     1    1
    11     1     2   am
    12     2     3    2
    13     2     5    1
    14     5     6   ar
    15     6     7   ar
    16     7    14    1
    17    14    15   ar
    18    15    16    1
    19    15    17   ar
    20    17    18   ar
    21    18    19   ar
    22    19    20   ar
    23    20    21    1
    24     7     8   ar
    25     8     9   ar
    26     9    10   ar
    27    10    11    1
    28    31    32    1
    29    32    33    1
    30    33    34    1
    31    33    35    1
    32    35    36    1
    33    35    37    1
    34    35    29    1
    35    27    22   ar
    36    10     5   ar
    37    20    14   ar
    38     1     4    1
    39    11    12    1
    40    11    13    1
    41    34    38    1
    42    37    39    1
@<TRIPOS>MOLECULE
*****
 39 42 0 0 0
SMALL
GASTEIGER

@<TRIPOS>ATOM
      1 N          63.0012   87.5198   12.5174 N.am    1  UNL1       -0.2781
      2 C          63.7298   86.9809   13.7128 C.2     1  UNL1        0.2686
      3 O          64.6491   87.8713   14.4951 O.2     1  UNL1       -0.2681
      4 H          62.3978   86.9354   12.0040 H       1  UNL1        0.1553
      5 C          63.5391   85.5515   14.1258 C.ar    1  UNL1        0.1507
      6 N          63.4517   84.4753   13.0846 N.ar    1  UNL1       -0.2206
      7 C          63.2610   83.0459   13.4976 C.ar    1  UNL1        0.1668
      8 N          63.1576   82.6928   14.9517 N.ar    1  UNL1       -0.2236
      9 C          63.2449   83.7691   15.9930 C.ar    1  UNL1        0.1163
     10 C          63.4357   85.1984   15.5800 C.ar    1  UNL1        0.0834
     11 N          63.5230   86.2747   16.6211 N.pl3   1  UNL1       -0.3545
     12 H          63.4552   86.0429   17.5756 H       1  UNL1        0.1424
     13 H          63.6482   87.2128   16.3501 H       1  UNL1        0.1424
     14 C          63.1736   81.9697   12.4564 C.ar    1  UNL1        0.0906
     15 C          63.6509   82.2369   11.0597 C.ar    1  UNL1        0.1452
     16 F          64.2156   83.5803   10.7042 F       1  UNL1       -0.2040
     17 C          63.5636   81.1606   10.0185 C.ar    1  UNL1        0.0299
     18 C          62.9989   79.8172   10.3740 C.ar    1  UNL1        0.0046
     19 C          62.5216   79.5500   11.7707 C.ar    1  UNL1        0.0299
     20 C          62.6089   80.6263   12.8120 C.ar    1  UNL1        0.1452
     21 F          62.1316   80.3591   14.2086 F       1  UNL1       -0.2040
     22 C          62.6938   89.4169   10.7691 C.ar    1  UNL1       -0.0059
     23 C          62.8846   90.8462   10.3561 C.ar    1  UNL1        0.0176
     24 C          63.5734   91.8079   11.2785 C.ar    1  UNL1        0.0987
     25 N          64.0716   91.3402   12.6138 N.ar    1  UNL1       -0.2410
     26 C          63.8808   89.9108   13.0268 C.ar    1  UNL1        0.1132
     27 C          63.1919   88.9492   12.1044 C.ar    1  UNL1        0.0660
     28 C          62.7143   84.9857    8.0555 C.3     1  UNL1        0.0025
     29 C          62.0152   86.2396    8.4899 C.3     1  UNL1        0.0273
     30 C          62.7040   87.2013    9.4123 C.3     1  UNL1        0.0069
     31 C          62.0049   88.4552    9.8467 C.3     1  UNL1        0.0262
     32 C          60.6170   88.7476    9.3588 C.3     1  UNL1        0.0360
     33 C          59.9282   87.7860    8.4365 C.3     1  UNL1        0.1352
     34 O          58.5401   88.0783    7.9486 O.3     1  UNL1       -0.3821
     35 C          60.6273   86.5320    8.0021 C.3     1  UNL1        0.1128
     36 C          59.3250   86.3692    7.2757 C.3     1  UNL1        0.0318
     37 O          60.8741   85.2215    7.3153 O.3     1  UNL1       -0.3844
     38 H          58.2446   87.3614    7.3658 H       1  UNL1        0.2104
     39 H          60.0945   84.9792    6.7914 H       1  UNL1        0.2103
@<TRIPOS>BOND
     1    29    28    1
     2    29    30    1
     3    30    31    1
     4    31    22    1
     5    22    23   ar
     6    23    24   ar
     7    24    25   ar
     8    25    26   ar
     9    26    27   ar
    10    27     1    1
    11     1     2   am
    12     2     3    2
    13     2     5    1
    14     5     6   ar
    15     6     7   ar
    16     7    14    1
    17    14    15   ar
    18    15    16    1
    19    15    17   ar
    20    17    18   ar
    21    18    19   ar
    22    19    20   ar
    23    20    21    1
    24     7     8   ar
    25     8     9   ar
    26     9    10   ar
    27    10    11    1
    28    31    32    1
    29    32    33    1
    30    33    34    1
    31    33    35    1
    32    35    36    1
    33    35    37    1
    34    35    29    1
    35    27    22   ar
    36    10     5   ar
    37    20    14   ar
    38     1     4    1
    39    11    12    1
    40    11    13    1
    41    34    38    1
    42    37    39    1
@<TRIPOS>MOLECULE
*****
 39 42 0 0 0
SMALL
GASTEIGER

@<TRIPOS>ATOM
      1 N          64.6263   90.7953   12.9033 N.am    1  UNL1       -0.2781
      2 C          63.3900   89.9855   13.1605 C.2     1  UNL1        0.2686
      3 O          62.7583   89.9927   14.5209 O.2     1  UNL1       -0.2681
      4 H          65.0410   90.7905   12.0104 H       1  UNL1        0.1553
      5 C          62.7856   89.1686   12.0572 C.ar    1  UNL1        0.1507
      6 N          63.0726   87.6990   11.9684 N.ar    1  UNL1       -0.2206
      7 C          62.4682   86.8821   10.8651 C.ar    1  UNL1        0.1668
      8 N          61.5768   87.5347    9.8505 N.ar    1  UNL1       -0.2236
      9 C          61.2897   89.0044    9.9393 C.ar    1  UNL1        0.1163
     10 C          61.8941   89.8213   11.0426 C.ar    1  UNL1        0.0834
     11 N          61.6071   91.2909   11.1314 N.pl3   1  UNL1       -0.3545
     12 H          61.0220   91.7193   10.4655 H       1  UNL1        0.1424
     13 H          62.0038   91.8271   11.8555 H       1  UNL1        0.1424
     14 C          62.7552   85.4125   10.7763 C.ar    1  UNL1        0.0906
     15 C          63.2594   84.8230    9.4924 C.ar    1  UNL1        0.1452
     16 F          63.4765   85.7031    8.2973 F       1  UNL1       -0.2040
     17 C          63.5464   83.3534    9.4036 C.ar    1  UNL1        0.0299
     18 C          63.3293   82.4733   10.5987 C.ar    1  UNL1        0.0046
     19 C          62.8252   83.0627   11.8826 C.ar    1  UNL1        0.0299
     20 C          62.5381   84.5324   11.9714 C.ar    1  UNL1        0.1452
     21 F          62.0340   85.1218   13.2552 F       1  UNL1       -0.2040
     22 C          66.1548   92.7475   13.6794 C.ar    1  UNL1       -0.0059
     23 C          66.7592   93.5645   14.7827 C.ar    1  UNL1        0.0176
     24 C          66.4396   93.2461   16.2132 C.ar    1  UNL1        0.0987
     25 N          65.5155   92.1107   16.5405 N.ar    1  UNL1       -0.2410
     26 C          64.9111   91.2938   15.4372 C.ar    1  UNL1        0.1132
     27 C          65.2307   91.6122   14.0066 C.ar    1  UNL1        0.0660
     28 C          68.6364   91.6014    9.2603 C.3     1  UNL1        0.0025
     29 C          67.7153   92.4929   10.0393 C.3     1  UNL1        0.0273
     30 C          67.3956   92.1745   11.4698 C.3     1  UNL1        0.0069
     31 C          66.4745   93.0660   12.2488 C.3     1  UNL1        0.0262
     32 C          65.8730   94.2758   11.5973 C.3     1  UNL1        0.0360
     33 C          66.1927   94.5942   10.1668 C.3     1  UNL1        0.1352
     34 O          65.5913   95.8041    9.5152 O.3     1  UNL1       -0.3821
     35 C          67.1139   93.7027    9.3878 C.3     1  UNL1        0.1128
     36 C          66.7937   94.7265    8.3393 C.3     1  UNL1        0.0318
     37 O          67.9238   93.1669    8.2446 O.3     1  UNL1       -0.3844
     38 H          65.8984   95.8632    8.5970 H       1  UNL1        0.2104
     39 H          67.8131   93.7428    7.4720 H       1  UNL1        0.2103
@<TRIPOS>BOND
     1    29    28    1
     2    29    30    1
     3    30    31    1
     4    31    22    1
     5    22    23   ar
     6    23    24   ar
     7    24    25   ar
     8    25    26   ar
     9    26    27   ar
    10    27     1    1
    11     1     2   am
    12     2     3    2
    13     2     5    1
    14     5     6   ar
    15     6     7   ar
    16     7    14    1
    17    14    15   ar
    18    15    16    1
    19    15    17   ar
    20    17    18   ar
    21    18    19   ar
    22    19    20   ar
    23    20    21    1
    24     7     8   ar
    25     8     9   ar
    26     9    10   ar
    27    10    11    1
    28    31    32    1
    29    32    33    1
    30    33    34    1
    31    33    35    1
    32    35    36    1
    33    35    37    1
    34    35    29    1
    35    27    22   ar
    36    10     5   ar
    37    20    14   ar
    38     1     4    1
    39    11    12    1
    40    11    13    1
    41    34    38    1
    42    37    39    1
@<TRIPOS>MOLECULE
*****
 39 42 0 0 0
SMALL
GASTEIGER

@<TRIPOS>ATOM
      1 N          64.1216   89.6039   12.3224 N.am    1  UNL1       -0.2781
      2 C          62.6568   89.2991   12.2138 C.2     1  UNL1        0.2686
      3 O          61.6632   90.1031   12.9988 O.2     1  UNL1       -0.2681
      4 H          64.7737   89.0762   11.8072 H       1  UNL1        0.1553
      5 C          62.1858   88.1903   11.3201 C.ar    1  UNL1        0.1507
      6 N          62.6562   86.7857   11.5561 N.ar    1  UNL1       -0.2206
      7 C          62.1852   85.6769   10.6624 C.ar    1  UNL1        0.1668
      8 N          61.2437   85.9726    9.5328 N.ar    1  UNL1       -0.2236
      9 C          60.7732   87.3773    9.2968 C.ar    1  UNL1        0.1163
     10 C          61.2442   88.4861   10.1905 C.ar    1  UNL1        0.0834
     11 N          60.7738   89.8907    9.9545 N.pl3   1  UNL1       -0.3545
     12 H          60.1559   90.0849    9.2131 H       1  UNL1        0.1424
     13 H          61.0830   90.6185   10.5411 H       1  UNL1        0.1424
     14 C          62.6556   84.2722   10.8983 C.ar    1  UNL1        0.0906
     15 C          62.4604   83.6313   12.2404 C.ar    1  UNL1        0.1452
     16 F          61.7948   84.3951   13.3466 F       1  UNL1       -0.2040
     17 C          62.9309   82.2267   12.4764 C.ar    1  UNL1        0.0299
     18 C          63.5965   81.4630   11.3702 C.ar    1  UNL1        0.0046
     19 C          63.7918   82.1038   10.0282 C.ar    1  UNL1        0.0299
     20 C          63.3213   83.5085    9.7922 C.ar    1  UNL1        0.1452
     21 F          63.5165   84.1493    8.4501 F       1  UNL1       -0.2040
     22 C          64.6577   90.5037   14.7000 C.ar    1  UNL1       -0.0059
     23 C          65.1287   91.6125   15.5937 C.ar    1  UNL1        0.0176
     24 C          65.5347   92.9303   15.0035 C.ar    1  UNL1        0.0987
     25 N          65.4697   93.1394   13.5195 N.ar    1  UNL1       -0.2410
     26 C          64.9986   92.0306   12.6258 C.ar    1  UNL1        0.1132
     27 C          64.5926   90.7127   13.2161 C.ar    1  UNL1        0.0660
     28 C          64.6791   85.3096   14.5538 C.3     1  UNL1        0.0025
     29 C          64.2624   86.5888   15.2172 C.3     1  UNL1        0.0273
     30 C          64.6684   87.9066   14.6269 C.3     1  UNL1        0.0069
     31 C          64.2516   89.1858   15.2903 C.3     1  UNL1        0.0262
     32 C          63.4289   89.1471   16.5440 C.3     1  UNL1        0.0360
     33 C          63.0230   87.8293   17.1342 C.3     1  UNL1        0.1352
     34 O          62.2002   87.7905   18.3879 O.3     1  UNL1       -0.3821
     35 C          63.4397   86.5501   16.4708 C.3     1  UNL1        0.1128
     36 C          62.6687   86.0010   17.6344 C.3     1  UNL1        0.0318
     37 O          63.5886   85.0802   16.2116 O.3     1  UNL1       -0.3844
     38 H          62.0267   86.8680   18.6324 H       1  UNL1        0.2104
     39 H          63.1274   84.5814   16.9040 H       1  UNL1        0.2103
@<TRIPOS>BOND
     1    29    28    1
     2    29    30    1
     3    30    31    1
     4    31    22    1
     5    22    23   ar
     6    23    24   ar
     7    24    25   ar
     8    25    26   ar
     9    26    27   ar
    10    27     1    1
    11     1     2   am
    12     2     3    2
    13     2     5    1
    14     5     6   ar
    15     6     7   ar
    16     7    14    1
    17    14    15   ar
    18    15    16    1
    19    15    17   ar
    20    17    18   ar
    21    18    19   ar
    22    19    20   ar
    23    20    21    1
    24     7     8   ar
    25     8     9   ar
    26     9    10   ar
    27    10    11    1
    28    31    32    1
    29    32    33    1
    30    33    34    1
    31    33    35    1
    32    35    36    1
    33    35    37    1
    34    35    29    1
    35    27    22   ar
    36    10     5   ar
    37    20    14   ar
    38     1     4    1
    39    11    12    1
    40    11    13    1
    41    34    38    1
    42    37    39    1
