@<TRIPOS>MOLECULE
*****
 22 24 0 0 0
SMALL
GASTEIGER

@<TRIPOS>ATOM
      1 C          62.6461   84.9222   12.3879 C.ar    1  UNL1        0.2035
      2 N          61.8133   85.3707   11.2237 N.ar    1  UNL1       -0.2147
      3 C          61.7512   86.8251   10.8621 C.ar    1  UNL1        0.0911
      4 C          62.5220   87.8311   11.6647 C.ar    1  UNL1        0.0801
      5 C          63.3548   87.3826   12.8288 C.ar    1  UNL1        0.2645
      6 O          64.1255   88.3885   13.6313 O.2     1  UNL1       -0.2668
      7 N          63.4169   85.9281   13.1904 N.ar    1  UNL1       -0.2667
      8 C          64.2497   85.4796   14.3545 C.3     1  UNL1        0.1363
      9 C          64.2241   83.0198   10.6876 C.3     1  UNL1        0.0242
     10 C          63.4972   82.5165   11.8993 C.3     1  UNL1        0.1052
     11 C          63.5592   81.0621   12.2609 C.3     1  UNL1        0.1619
     12 O          62.8323   80.5589   13.4727 O.3     1  UNL1       -0.3502
     13 C          62.0433   81.5100   14.3228 C.3     1  UNL1        0.1637
     14 C          61.9813   82.9644   13.9612 C.3     1  UNL1        0.1256
     15 N          62.7082   83.4677   12.7494 N.pl3   1  UNL1       -0.2760
     16 C          60.9184   87.2736    9.6980 C.ar    1  UNL1        0.0485
     17 C          60.3088   86.2589    8.7767 C.ar    1  UNL1        0.0244
     18 C          59.4760   86.7074    7.6126 C.ar    1  UNL1        0.0991
     19 N          59.2527   88.1707    7.3697 N.ar    1  UNL1       -0.2400
     20 C          59.8623   89.1855    8.2910 C.ar    1  UNL1        0.1285
     21 C          60.6951   88.7370    9.4551 C.ar    1  UNL1        0.1606
     22 F          61.3046   89.7517   10.3764 F       1  UNL1       -0.2025
@<TRIPOS>BOND
     1    10     9    1
     2    10    11    1
     3    11    12    1
     4    12    13    1
     5    13    14    1
     6    14    15    1
     7    15     1    1
     8     1     2   ar
     9     2     3   ar
    10     3    16    1
    11    16    17   ar
    12    17    18   ar
    13    18    19   ar
    14    19    20   ar
    15    20    21   ar
    16    21    22    1
    17     3     4   ar
    18     4     5   ar
    19     5     6    2
    20     5     7   ar
    21     7     8    1
    22    15    10    1
    23     7     1   ar
    24    21    16   ar
@<TRIPOS>MOLECULE
*****
 22 24 0 0 0
SMALL
GASTEIGER

@<TRIPOS>ATOM
      1 C          62.8447   88.6010   12.0769 C.ar    1  UNL1        0.2035
      2 N          63.2908   87.2017   12.3819 N.ar    1  UNL1       -0.2147
      3 C          62.5039   86.0341   11.8645 C.ar    1  UNL1        0.0911
      4 C          61.2710   86.2659   11.0422 C.ar    1  UNL1        0.0801
      5 C          60.8249   87.6652   10.7372 C.ar    1  UNL1        0.2645
      6 O          59.5920   87.8970    9.9149 O.2     1  UNL1       -0.2668
      7 N          61.6118   88.8328   11.2546 N.ar    1  UNL1       -0.2667
      8 C          61.1658   90.2321   10.9497 C.3     1  UNL1        0.1363
      9 C          64.0234   88.5119   14.8343 C.3     1  UNL1        0.0242
     10 C          64.2210   89.7240   13.9730 C.3     1  UNL1        0.1052
     11 C          65.0078   90.8915   14.4903 C.3     1  UNL1        0.1619
     12 O          65.2054   92.1036   13.6290 O.3     1  UNL1       -0.3502
     13 C          64.6161   92.1481   12.2504 C.3     1  UNL1        0.1637
     14 C          63.8292   90.9806   11.7330 C.3     1  UNL1        0.1256
     15 N          63.6317   89.7685   12.5943 N.pl3   1  UNL1       -0.2760
     16 C          62.9500   84.6348   12.1694 C.ar    1  UNL1        0.0485
     17 C          62.8390   84.0999   13.5664 C.ar    1  UNL1        0.0244
     18 C          63.2850   82.7006   13.8713 C.ar    1  UNL1        0.0991
     19 N          63.8421   81.8362   12.7793 N.ar    1  UNL1       -0.2400
     20 C          63.9531   82.3711   11.3823 C.ar    1  UNL1        0.1285
     21 C          63.5070   83.7704   11.0774 C.ar    1  UNL1        0.1606
     22 F          63.6180   84.3054    9.6804 F       1  UNL1       -0.2025
@<TRIPOS>BOND
     1    10     9    1
     2    10    11    1
     3    11    12    1
     4    12    13    1
     5    13    14    1
     6    14    15    1
     7    15     1    1
     8     1     2   ar
     9     2     3   ar
    10     3    16    1
    11    16    17   ar
    12    17    18   ar
    13    18    19   ar
    14    19    20   ar
    15    20    21   ar
    16    21    22    1
    17     3     4   ar
    18     4     5   ar
    19     5     6    2
    20     5     7   ar
    21     7     8    1
    22    15    10    1
    23     7     1   ar
    24    21    16   ar
@<TRIPOS>MOLECULE
*****
 22 24 0 0 0
SMALL
GASTEIGER

@<TRIPOS>ATOM
      1 C          62.6879   84.8748   11.6334 C.ar    1  UNL1        0.2035
      2 N          61.9612   86.1646   11.8749 N.ar    1  UNL1       -0.2147
      3 C          61.6398   87.0712   10.7239 C.ar    1  UNL1        0.0911
      4 C          62.0451   86.6880    9.3314 C.ar    1  UNL1        0.0801
      5 C          62.7718   85.3982    9.0900 C.ar    1  UNL1        0.2645
      6 O          63.1771   85.0150    7.6976 O.2     1  UNL1       -0.2668
      7 N          63.0932   84.4916   10.2410 N.ar    1  UNL1       -0.2667
      8 C          63.8200   83.2018    9.9995 C.3     1  UNL1        0.1363
      9 C          64.2259   85.9245   13.9856 C.3     1  UNL1        0.0242
     10 C          63.7783   84.4930   13.9605 C.3     1  UNL1        0.1052
     11 C          64.0997   83.5864   15.1115 C.3     1  UNL1        0.1619
     12 O          63.6521   82.1550   15.0864 O.3     1  UNL1       -0.3502
     13 C          62.8832   81.6301   13.9103 C.3     1  UNL1        0.1637
     14 C          62.5618   82.5367   12.7593 C.3     1  UNL1        0.1256
     15 N          63.0094   83.9682   12.7845 N.pl3   1  UNL1       -0.2760
     16 C          60.9131   88.3610   10.9654 C.ar    1  UNL1        0.0485
     17 C          59.5569   88.3492   11.6061 C.ar    1  UNL1        0.0244
     18 C          58.8302   89.6390   11.8475 C.ar    1  UNL1        0.0991
     19 N          59.4597   90.9406   11.4483 N.ar    1  UNL1       -0.2400
     20 C          60.8160   90.9525   10.8076 C.ar    1  UNL1        0.1285
     21 C          61.5427   89.6627   10.5661 C.ar    1  UNL1        0.1606
     22 F          62.8989   89.6745    9.9254 F       1  UNL1       -0.2025
@<TRIPOS>BOND
     1    10     9    1
     2    10    11    1
     3    11    12    1
     4    12    13    1
     5    13    14    1
     6    14    15    1
     7    15     1    1
     8     1     2   ar
     9     2     3   ar
    10     3    16    1
    11    16    17   ar
    12    17    18   ar
    13    18    19   ar
    14    19    20   ar
    15    20    21   ar
    16    21    22    1
    17     3     4   ar
    18     4     5   ar
    19     5     6    2
    20     5     7   ar
    21     7     8    1
    22    15    10    1
    23     7     1   ar
    24    21    16   ar
@<TRIPOS>MOLECULE
*****
 22 24 0 0 0
SMALL
GASTEIGER

@<TRIPOS>ATOM
      1 C          62.7130   86.8258   11.8837 C.ar    1  UNL1        0.2035
      2 N          63.0837   88.1646   12.4494 N.ar    1  UNL1       -0.2147
      3 C          63.8378   88.2495   13.7432 C.ar    1  UNL1        0.0911
      4 C          64.2212   86.9954   14.4715 C.ar    1  UNL1        0.0801
      5 C          63.8506   85.6565   13.9058 C.ar    1  UNL1        0.2645
      6 O          64.2340   84.4025   14.6340 O.2     1  UNL1       -0.2668
      7 N          63.0964   85.5717   12.6119 N.ar    1  UNL1       -0.2667
      8 C          62.7257   84.2328   12.0463 C.3     1  UNL1        0.1363
      9 C          60.0605   88.1984   11.6007 C.3     1  UNL1        0.0242
     10 C          60.6327   87.4272   10.4483 C.3     1  UNL1        0.1052
     11 C          59.8786   87.3424    9.1544 C.3     1  UNL1        0.1619
     12 O          60.4508   86.5713    8.0020 O.3     1  UNL1       -0.3502
     13 C          61.7770   85.8850    8.1435 C.3     1  UNL1        0.1637
     14 C          62.5311   85.9698    9.4374 C.3     1  UNL1        0.1256
     15 N          61.9589   86.7410   10.5898 N.pl3   1  UNL1       -0.2760
     16 C          64.2085   89.5884   14.3089 C.ar    1  UNL1        0.0485
     17 C          65.0790   90.5210   13.5199 C.ar    1  UNL1        0.0244
     18 C          65.4497   91.8598   14.0855 C.ar    1  UNL1        0.0991
     19 N          64.9499   92.2662   15.4402 N.ar    1  UNL1       -0.2400
     20 C          64.0793   91.3336   16.2292 C.ar    1  UNL1        0.1285
     21 C          63.7086   89.9947   15.6636 C.ar    1  UNL1        0.1606
     22 F          62.8382   89.0621   16.4525 F       1  UNL1       -0.2025
@<TRIPOS>BOND
     1    10     9    1
     2    10    11    1
     3    11    12    1
     4    12    13    1
     5    13    14    1
     6    14    15    1
     7    15     1    1
     8     1     2   ar
     9     2     3   ar
    10     3    16    1
    11    16    17   ar
    12    17    18   ar
    13    18    19   ar
    14    19    20   ar
    15    20    21   ar
    16    21    22    1
    17     3     4   ar
    18     4     5   ar
    19     5     6    2
    20     5     7   ar
    21     7     8    1
    22    15    10    1
    23     7     1   ar
    24    21    16   ar
@<TRIPOS>MOLECULE
*****
 22 24 0 0 0
SMALL
GASTEIGER

@<TRIPOS>ATOM
      1 C          62.9305   88.7986   12.1938 C.ar    1  UNL1        0.2035
      2 N          63.4138   87.4028   12.4548 N.ar    1  UNL1       -0.2147
      3 C          62.6411   86.2306   11.9270 C.ar    1  UNL1        0.0911
      4 C          61.3850   86.4541   11.1380 C.ar    1  UNL1        0.0801
      5 C          60.9017   87.8499   10.8770 C.ar    1  UNL1        0.2645
      6 O          59.6456   88.0734   10.0881 O.2     1  UNL1       -0.2668
      7 N          61.6744   89.0222   11.4049 N.ar    1  UNL1       -0.2667
      8 C          61.1911   90.4180   11.1439 C.3     1  UNL1        0.1363
      9 C          63.7110   88.8999   15.0888 C.3     1  UNL1        0.0242
     10 C          64.0935   90.0215   14.1692 C.3     1  UNL1        0.1052
     11 C          64.8662   91.1938   14.6970 C.3     1  UNL1        0.1619
     12 O          65.2487   92.3154   13.7775 O.3     1  UNL1       -0.3502
     13 C          64.8584   92.2648   12.3300 C.3     1  UNL1        0.1637
     14 C          64.0857   91.0926   11.8022 C.3     1  UNL1        0.1256
     15 N          63.7032   89.9709   12.7218 N.pl3   1  UNL1       -0.2760
     16 C          63.1244   84.8348   12.1880 C.ar    1  UNL1        0.0485
     17 C          63.2484   83.8598   11.0548 C.ar    1  UNL1        0.0244
     18 C          63.7317   82.4640   11.3158 C.ar    1  UNL1        0.0991
     19 N          64.0911   82.0432   12.7100 N.ar    1  UNL1       -0.2400
     20 C          63.9671   83.0181   13.8432 C.ar    1  UNL1        0.1285
     21 C          63.4838   84.4139   13.5822 C.ar    1  UNL1        0.1606
     22 F          63.3598   85.3889   14.7153 F       1  UNL1       -0.2025
@<TRIPOS>BOND
     1    10     9    1
     2    10    11    1
     3    11    12    1
     4    12    13    1
     5    13    14    1
     6    14    15    1
     7    15     1    1
     8     1     2   ar
     9     2     3   ar
    10     3    16    1
    11    16    17   ar
    12    17    18   ar
    13    18    19   ar
    14    19    20   ar
    15    20    21   ar
    16    21    22    1
    17     3     4   ar
    18     4     5   ar
    19     5     6    2
    20     5     7   ar
    21     7     8    1
    22    15    10    1
    23     7     1   ar
    24    21    16   ar
@<TRIPOS>MOLECULE
*****
 22 24 0 0 0
SMALL
GASTEIGER

@<TRIPOS>ATOM
      1 C          62.3098   87.0786   11.2294 C.ar    1  UNL1        0.2035
      2 N          63.1602   88.0042   12.0481 N.ar    1  UNL1       -0.2147
      3 C          62.8758   89.4770   12.0525 C.ar    1  UNL1        0.0911
      4 C          61.7410   90.0242   11.2383 C.ar    1  UNL1        0.0801
      5 C          60.8906   89.0986   10.4197 C.ar    1  UNL1        0.2645
      6 O          59.7558   89.6457    9.6055 O.2     1  UNL1       -0.2668
      7 N          61.1750   87.6257   10.4153 N.ar    1  UNL1       -0.2667
      8 C          60.3247   86.7001    9.5967 C.3     1  UNL1        0.1363
      9 C          63.2286   85.7358    8.7090 C.3     1  UNL1        0.0242
     10 C          63.0536   84.9344    9.9648 C.3     1  UNL1        0.1052
     11 C          63.3380   83.4616    9.9605 C.3     1  UNL1        0.1619
     12 O          63.1630   82.6603   11.2163 O.3     1  UNL1       -0.3502
     13 C          62.7037   83.3316   12.4765 C.3     1  UNL1        0.1637
     14 C          62.4193   84.8044   12.4809 C.3     1  UNL1        0.1256
     15 N          62.5942   85.6058   11.2250 N.pl3   1  UNL1       -0.2760
     16 C          63.7261   90.4026   12.8711 C.ar    1  UNL1        0.0485
     17 C          63.7894   90.2421   14.3611 C.ar    1  UNL1        0.0244
     18 C          64.6398   91.1677   15.1797 C.ar    1  UNL1        0.0991
     19 N          65.4269   92.2538   14.5083 N.ar    1  UNL1       -0.2400
     20 C          65.3637   92.4143   13.0182 C.ar    1  UNL1        0.1285
     21 C          64.5133   91.4887   12.1996 C.ar    1  UNL1        0.1606
     22 F          64.4500   91.6492   10.7096 F       1  UNL1       -0.2025
@<TRIPOS>BOND
     1    10     9    1
     2    10    11    1
     3    11    12    1
     4    12    13    1
     5    13    14    1
     6    14    15    1
     7    15     1    1
     8     1     2   ar
     9     2     3   ar
    10     3    16    1
    11    16    17   ar
    12    17    18   ar
    13    18    19   ar
    14    19    20   ar
    15    20    21   ar
    16    21    22    1
    17     3     4   ar
    18     4     5   ar
    19     5     6    2
    20     5     7   ar
    21     7     8    1
    22    15    10    1
    23     7     1   ar
    24    21    16   ar
@<TRIPOS>MOLECULE
*****
 22 24 0 0 0
SMALL
GASTEIGER

@<TRIPOS>ATOM
      1 C          63.1314   85.0167   12.5111 C.ar    1  UNL1        0.2035
      2 N          62.2444   85.9129   11.6987 N.ar    1  UNL1       -0.2147
      3 C          62.1290   85.7107   10.2169 C.ar    1  UNL1        0.0911
      4 C          62.9007   84.6123    9.5475 C.ar    1  UNL1        0.0801
      5 C          63.7877   83.7161   10.3599 C.ar    1  UNL1        0.2645
      6 O          64.5594   82.6177    9.6906 O.2     1  UNL1       -0.2668
      7 N          63.9030   83.9183   11.8418 N.ar    1  UNL1       -0.2667
      8 C          64.7900   83.0221   12.6543 C.3     1  UNL1        0.1363
      9 C          61.8066   83.0942   14.3951 C.3     1  UNL1        0.0242
     10 C          62.5843   84.2577   14.9349 C.3     1  UNL1        0.1052
     11 C          62.6997   84.4600   16.4167 C.3     1  UNL1        0.1619
     12 O          63.4774   85.6235   16.9566 O.3     1  UNL1       -0.3502
     13 C          64.1397   86.5847   16.0147 C.3     1  UNL1        0.1637
     14 C          64.0244   86.3825   14.5329 C.3     1  UNL1        0.1256
     15 N          63.2467   85.2190   13.9930 N.pl3   1  UNL1       -0.2760
     16 C          61.2421   86.6069    9.4044 C.ar    1  UNL1        0.0485
     17 C          60.2839   86.0155    8.4134 C.ar    1  UNL1        0.0244
     18 C          59.3969   86.9116    7.6010 C.ar    1  UNL1        0.0991
     19 N          59.4681   88.3992    7.7795 N.ar    1  UNL1       -0.2400
     20 C          60.4263   88.9907    8.7705 C.ar    1  UNL1        0.1285
     21 C          61.3133   88.0946    9.5830 C.ar    1  UNL1        0.1606
     22 F          62.2714   88.6860   10.5740 F       1  UNL1       -0.2025
@<TRIPOS>BOND
     1    10     9    1
     2    10    11    1
     3    11    12    1
     4    12    13    1
     5    13    14    1
     6    14    15    1
     7    15     1    1
     8     1     2   ar
     9     2     3   ar
    10     3    16    1
    11    16    17   ar
    12    17    18   ar
    13    18    19   ar
    14    19    20   ar
    15    20    21   ar
    16    21    22    1
    17     3     4   ar
    18     4     5   ar
    19     5     6    2
    20     5     7   ar
    21     7     8    1
    22    15    10    1
    23     7     1   ar
    24    21    16   ar
@<TRIPOS>MOLECULE
*****
 22 24 0 0 0
SMALL
GASTEIGER

@<TRIPOS>ATOM
      1 C          63.3028   86.5041   12.7897 C.ar    1  UNL1        0.2035
      2 N          63.8733   87.6283   13.6025 N.ar    1  UNL1       -0.2147
      3 C          63.6360   89.0499   13.1870 C.ar    1  UNL1        0.0911
      4 C          62.8282   89.3474   11.9585 C.ar    1  UNL1        0.0801
      5 C          62.2577   88.2232   11.1457 C.ar    1  UNL1        0.2645
      6 O          61.4500   88.5206    9.9173 O.2     1  UNL1       -0.2668
      7 N          62.4950   86.8015   11.5613 N.ar    1  UNL1       -0.2667
      8 C          61.9245   85.6773   10.7484 C.3     1  UNL1        0.1363
      9 C          63.5801   85.8175   15.6969 C.3     1  UNL1        0.0242
     10 C          63.6787   84.7392   14.6588 C.3     1  UNL1        0.1052
     11 C          63.9160   83.3176   15.0744 C.3     1  UNL1        0.1619
     12 O          64.0146   82.2392   14.0363 O.3     1  UNL1       -0.3502
     13 C          63.8759   82.5825   12.5828 C.3     1  UNL1        0.1637
     14 C          63.6387   84.0041   12.1672 C.3     1  UNL1        0.1256
     15 N          63.5401   85.0824   13.2053 N.pl3   1  UNL1       -0.2760
     16 C          64.2066   90.1740   13.9998 C.ar    1  UNL1        0.0485
     17 C          65.2060   91.1102   13.3877 C.ar    1  UNL1        0.0244
     18 C          65.7765   92.2344   14.2005 C.ar    1  UNL1        0.0991
     19 N          65.3476   92.4224   15.6255 N.ar    1  UNL1       -0.2400
     20 C          64.3482   91.4862   16.2378 C.ar    1  UNL1        0.1285
     21 C          63.7776   90.3620   15.4249 C.ar    1  UNL1        0.1606
     22 F          62.7783   89.4259   16.0371 F       1  UNL1       -0.2025
@<TRIPOS>BOND
     1    10     9    1
     2    10    11    1
     3    11    12    1
     4    12    13    1
     5    13    14    1
     6    14    15    1
     7    15     1    1
     8     1     2   ar
     9     2     3   ar
    10     3    16    1
    11    16    17   ar
    12    17    18   ar
    13    18    19   ar
    14    19    20   ar
    15    20    21   ar
    16    21    22    1
    17     3     4   ar
    18     4     5   ar
    19     5     6    2
    20     5     7   ar
    21     7     8    1
    22    15    10    1
    23     7     1   ar
    24    21    16   ar
@<TRIPOS>MOLECULE
*****
 22 24 0 0 0
SMALL
GASTEIGER

@<TRIPOS>ATOM
      1 C          62.2920   86.8946   11.8625 C.ar    1  UNL1        0.2035
      2 N          62.1057   85.4072   11.9159 N.ar    1  UNL1       -0.2147
      3 C          62.8725   84.5906   12.9135 C.ar    1  UNL1        0.0911
      4 C          63.8256   85.2615   13.8577 C.ar    1  UNL1        0.0801
      5 C          64.0119   86.7489   13.8044 C.ar    1  UNL1        0.2645
      6 O          64.9649   87.4198   14.7486 O.2     1  UNL1       -0.2668
      7 N          63.2450   87.5655   12.8067 N.ar    1  UNL1       -0.2667
      8 C          63.4313   89.0529   12.7533 C.3     1  UNL1        0.1363
      9 C          62.2625   86.0912    8.9722 C.3     1  UNL1        0.0242
     10 C          61.5104   87.3095    9.4197 C.3     1  UNL1        0.1052
     11 C          60.7436   88.1260    8.4221 C.3     1  UNL1        0.1619
     12 O          59.9916   89.3443    8.8697 O.3     1  UNL1       -0.3502
     13 C          60.0063   89.7460   10.3148 C.3     1  UNL1        0.1637
     14 C          60.7731   88.9294   11.3123 C.3     1  UNL1        0.1256
     15 N          61.5252   87.7112   10.8648 N.pl3   1  UNL1       -0.2760
     16 C          62.6862   83.1032   12.9668 C.ar    1  UNL1        0.0485
     17 C          62.0607   82.4685   14.1734 C.ar    1  UNL1        0.0244
     18 C          61.8744   80.9810   14.2267 C.ar    1  UNL1        0.0991
     19 N          62.3137   80.1283   13.0736 N.ar    1  UNL1       -0.2400
     20 C          62.9393   80.7630   11.8669 C.ar    1  UNL1        0.1285
     21 C          63.1256   82.2504   11.8136 C.ar    1  UNL1        0.1606
     22 F          63.7511   82.8851   10.6070 F       1  UNL1       -0.2025
@<TRIPOS>BOND
     1    10     9    1
     2    10    11    1
     3    11    12    1
     4    12    13    1
     5    13    14    1
     6    14    15    1
     7    15     1    1
     8     1     2   ar
     9     2     3   ar
    10     3    16    1
    11    16    17   ar
    12    17    18   ar
    13    18    19   ar
    14    19    20   ar
    15    20    21   ar
    16    21    22    1
    17     3     4   ar
    18     4     5   ar
    19     5     6    2
    20     5     7   ar
    21     7     8    1
    22    15    10    1
    23     7     1   ar
    24    21    16   ar
