@<TRIPOS>MOLECULE
*****
 32 35 0 0 0
SMALL
GASTEIGER

@<TRIPOS>ATOM
      1 C          63.4199   92.0540   16.4275 C.3     1  UNL1        0.0311
      2 C          64.3342   91.1151   15.6976 C.3     1  UNL1        0.1470
      3 C          63.9013   89.7043   15.4289 C.2     1  UNL1        0.2439
      4 O          62.6559   89.1670   16.0693 O.2     1  UNL1       -0.2730
      5 N          64.7140   88.8307   14.5197 N.am    1  UNL1       -0.2814
      6 H          65.5314   89.1834   14.0993 H       1  UNL1        0.1549
      7 C          64.2811   87.4199   14.2509 C.ar    1  UNL1        0.0698
      8 C          64.6593   86.3249   15.2039 C.ar    1  UNL1        0.0178
      9 C          64.2265   84.9141   14.9351 C.ar    1  UNL1        0.0205
     10 C          63.4154   84.5983   13.7134 C.ar    1  UNL1        0.0829
     11 N          63.0372   85.6932   12.7605 N.ar    1  UNL1       -0.2425
     12 C          63.4701   87.1040   13.0293 C.ar    1  UNL1        0.1134
     13 C          62.9825   83.1874   13.4447 C.ar    1  UNL1        0.0368
     14 C          62.1615   82.4486   14.4596 C.ar    1  UNL1        0.0046
     15 C          61.7286   81.0378   14.1909 C.ar    1  UNL1        0.0207
     16 C          62.1168   80.3658   12.9072 C.ar    1  UNL1        0.0989
     17 N          62.9378   81.1046   11.8923 N.ar    1  UNL1       -0.2423
     18 C          63.3707   82.5155   12.1610 C.ar    1  UNL1        0.1003
     19 N          65.6813   91.5870   15.2366 N.pl3   1  UNL1       -0.3257
     20 H          66.4880   91.3484   15.7479 H       1  UNL1        0.1472
     21 C          65.7992   92.4226   13.9964 C.ar    1  UNL1        0.0644
     22 C          65.1879   91.9482   12.7114 C.ar    1  UNL1        0.0175
     23 C          65.3059   92.7838   11.4714 C.ar    1  UNL1        0.0219
     24 C          66.0351   94.0938   11.5163 C.ar    1  UNL1        0.0987
     25 N          66.6464   94.5682   12.8012 N.ar    1  UNL1       -0.2410
     26 C          66.5285   93.7326   14.0413 C.ar    1  UNL1        0.1131
     27 C          66.1531   94.9294   10.2761 C.ar    1  UNL1        0.0971
     28 C          65.4018   96.1962    9.9918 C.ar    1  UNL1        0.0427
     29 C          65.8273   96.6946    8.6425 C.ar    1  UNL1        0.1217
     30 N          66.8417   95.7359    8.0930 N.ar    1  UNL1       -0.1676
     31 N          67.0430   94.6449    9.1026 N.ar    1  UNL1       -0.2473
     32 C          67.9712   93.4749    8.9631 C.3     1  UNL1        0.1538
@<TRIPOS>BOND
     1     2     1    1
     2     2    19    1
     3    19    21    1
     4    21    22   ar
     5    22    23   ar
     6    23    24   ar
     7    24    27    1
     8    27    28   ar
     9    28    29   ar
    10    29    30   ar
    11    30    31   ar
    12    31    32    1
    13    24    25   ar
    14    25    26   ar
    15     2     3    1
    16     3     4    2
    17     3     5   am
    18     5     7    1
    19     7     8   ar
    20     8     9   ar
    21     9    10   ar
    22    10    13    1
    23    13    14   ar
    24    14    15   ar
    25    15    16   ar
    26    16    17   ar
    27    17    18   ar
    28    10    11   ar
    29    11    12   ar
    30    26    21   ar
    31    12     7   ar
    32    31    27   ar
    33    18    13   ar
    34    19    20    1
    35     5     6    1
@<TRIPOS>MOLECULE
*****
 32 35 0 0 0
SMALL
GASTEIGER

@<TRIPOS>ATOM
      1 C          63.1423   90.4088   15.8016 C.3     1  UNL1        0.0311
      2 C          64.2162   89.7752   14.9676 C.3     1  UNL1        0.1470
      3 C          63.9635   88.4598   14.2925 C.2     1  UNL1        0.2439
      4 O          63.4478   88.4263   12.8844 O.2     1  UNL1       -0.2730
      5 N          64.2265   87.1778   15.0257 N.am    1  UNL1       -0.2814
      6 H          64.5650   87.1998   15.9499 H       1  UNL1        0.1549
      7 C          63.9738   85.8623   14.3506 C.ar    1  UNL1        0.0698
      8 C          63.4192   85.8287   12.9572 C.ar    1  UNL1        0.0178
      9 C          63.1665   84.5133   12.2821 C.ar    1  UNL1        0.0205
     10 C          63.4683   83.2314   13.0004 C.ar    1  UNL1        0.0829
     11 N          64.0228   83.2651   14.3937 N.ar    1  UNL1       -0.2425
     12 C          64.2755   84.5806   15.0688 C.ar    1  UNL1        0.1134
     13 C          63.2156   81.9160   12.3254 C.ar    1  UNL1        0.0368
     14 C          63.3542   81.7983   10.8364 C.ar    1  UNL1        0.0046
     15 C          63.1015   80.4828   10.1613 C.ar    1  UNL1        0.0207
     16 C          62.7101   79.2851   10.9752 C.ar    1  UNL1        0.0989
     17 N          62.5715   79.4029   12.4641 N.ar    1  UNL1       -0.2423
     18 C          62.8242   80.7183   13.1392 C.ar    1  UNL1        0.1003
     19 N          65.5428   90.4571   14.8087 N.pl3   1  UNL1       -0.3257
     20 H          66.2796   90.2508   15.4282 H       1  UNL1        0.1472
     21 C          65.7467   91.4534   13.7061 C.ar    1  UNL1        0.0644
     22 C          64.7149   91.5998   12.6272 C.ar    1  UNL1        0.0175
     23 C          64.9188   92.5961   11.5246 C.ar    1  UNL1        0.0219
     24 C          66.1545   93.4460   11.5009 C.ar    1  UNL1        0.0987
     25 N          67.1863   93.2997   12.5797 N.ar    1  UNL1       -0.2410
     26 C          66.9824   92.3034   13.6823 C.ar    1  UNL1        0.1131
     27 C          66.3584   94.4424   10.3982 C.ar    1  UNL1        0.0971
     28 C          65.6390   95.7499   10.2472 C.ar    1  UNL1        0.0427
     29 C          66.1535   96.4217    9.0087 C.ar    1  UNL1        0.1217
     30 N          67.1909   95.5294    8.3942 N.ar    1  UNL1       -0.1676
     31 N          67.3175   94.3061    9.2530 N.ar    1  UNL1       -0.2473
     32 C          68.2411   93.1496    9.0092 C.3     1  UNL1        0.1538
@<TRIPOS>BOND
     1     2     1    1
     2     2    19    1
     3    19    21    1
     4    21    22   ar
     5    22    23   ar
     6    23    24   ar
     7    24    27    1
     8    27    28   ar
     9    28    29   ar
    10    29    30   ar
    11    30    31   ar
    12    31    32    1
    13    24    25   ar
    14    25    26   ar
    15     2     3    1
    16     3     4    2
    17     3     5   am
    18     5     7    1
    19     7     8   ar
    20     8     9   ar
    21     9    10   ar
    22    10    13    1
    23    13    14   ar
    24    14    15   ar
    25    15    16   ar
    26    16    17   ar
    27    17    18   ar
    28    10    11   ar
    29    11    12   ar
    30    26    21   ar
    31    12     7   ar
    32    31    27   ar
    33    18    13   ar
    34    19    20    1
    35     5     6    1
@<TRIPOS>MOLECULE
*****
 32 35 0 0 0
SMALL
GASTEIGER

@<TRIPOS>ATOM
      1 C          63.1578   90.5135   16.6161 C.3     1  UNL1        0.0311
      2 C          64.0821   90.5173   15.4347 C.3     1  UNL1        0.1470
      3 C          63.8251   89.5969   14.2785 C.2     1  UNL1        0.2439
      4 O          64.6063   88.3233   14.1457 O.2     1  UNL1       -0.2730
      5 N          62.7869   89.9502   13.2550 N.am    1  UNL1       -0.2814
      6 H          62.2742   90.7861   13.3422 H       1  UNL1        0.1549
      7 C          62.5299   89.0298   12.0988 C.ar    1  UNL1        0.0698
      8 C          62.7221   87.5509   12.2603 C.ar    1  UNL1        0.0178
      9 C          62.4651   86.6305   11.1041 C.ar    1  UNL1        0.0205
     10 C          62.0159   87.1890    9.7864 C.ar    1  UNL1        0.0829
     11 N          61.8237   88.6678    9.6249 N.ar    1  UNL1       -0.2425
     12 C          62.0807   89.5882   10.7811 C.ar    1  UNL1        0.1134
     13 C          61.7589   86.2686    8.6301 C.ar    1  UNL1        0.0368
     14 C          62.8686   85.4169    8.0885 C.ar    1  UNL1        0.0046
     15 C          62.6116   84.4965    6.9323 C.ar    1  UNL1        0.0207
     16 C          61.2449   84.4278    6.3177 C.ar    1  UNL1        0.0989
     17 N          60.1354   85.2795    6.8594 N.ar    1  UNL1       -0.2423
     18 C          60.3924   86.1999    8.0156 C.ar    1  UNL1        0.1003
     19 N          65.2633   91.4414   15.4095 N.pl3   1  UNL1       -0.3257
     20 H          65.8335   91.5334   16.2068 H       1  UNL1        0.1472
     21 C          65.5758   92.2256   14.1695 C.ar    1  UNL1        0.0644
     22 C          65.0363   91.7782   12.8433 C.ar    1  UNL1        0.0175
     23 C          65.3488   92.5623   11.6034 C.ar    1  UNL1        0.0219
     24 C          66.2008   93.7938   11.6896 C.ar    1  UNL1        0.0987
     25 N          66.7403   94.2412   13.0158 N.ar    1  UNL1       -0.2410
     26 C          66.4278   93.4571   14.2557 C.ar    1  UNL1        0.1131
     27 C          66.5133   94.5780   10.4496 C.ar    1  UNL1        0.0971
     28 C          65.9472   95.9194   10.0887 C.ar    1  UNL1        0.0427
     29 C          66.5307   96.3289    8.7689 C.ar    1  UNL1        0.1217
     30 N          67.4574   95.2405    8.3142 N.ar    1  UNL1       -0.1676
     31 N          67.4466   94.1584    9.3529 N.ar    1  UNL1       -0.2473
     32 C          68.2314   92.8811    9.3036 C.3     1  UNL1        0.1538
@<TRIPOS>BOND
     1     2     1    1
     2     2    19    1
     3    19    21    1
     4    21    22   ar
     5    22    23   ar
     6    23    24   ar
     7    24    27    1
     8    27    28   ar
     9    28    29   ar
    10    29    30   ar
    11    30    31   ar
    12    31    32    1
    13    24    25   ar
    14    25    26   ar
    15     2     3    1
    16     3     4    2
    17     3     5   am
    18     5     7    1
    19     7     8   ar
    20     8     9   ar
    21     9    10   ar
    22    10    13    1
    23    13    14   ar
    24    14    15   ar
    25    15    16   ar
    26    16    17   ar
    27    17    18   ar
    28    10    11   ar
    29    11    12   ar
    30    26    21   ar
    31    12     7   ar
    32    31    27   ar
    33    18    13   ar
    34    19    20    1
    35     5     6    1
@<TRIPOS>MOLECULE
*****
 32 35 0 0 0
SMALL
GASTEIGER

@<TRIPOS>ATOM
      1 C          59.7497   89.7093    9.6282 C.3     1  UNL1        0.0311
      2 C          61.1109   89.0843    9.7091 C.3     1  UNL1        0.1470
      3 C          62.2202   89.7935   10.4279 C.2     1  UNL1        0.2439
      4 O          63.1073   90.7467    9.6834 O.2     1  UNL1       -0.2730
      5 N          62.4424   89.5492   11.8911 N.am    1  UNL1       -0.2814
      6 H          61.8601   88.9236   12.3797 H       1  UNL1        0.1549
      7 C          63.5517   90.2584   12.6099 C.ar    1  UNL1        0.0698
      8 C          64.1929   89.6259   13.8095 C.ar    1  UNL1        0.0178
      9 C          65.3022   90.3351   14.5283 C.ar    1  UNL1        0.0205
     10 C          65.7703   91.6766   14.0474 C.ar    1  UNL1        0.0829
     11 N          65.1291   92.3090   12.8478 N.ar    1  UNL1       -0.2425
     12 C          64.0198   91.5998   12.1291 C.ar    1  UNL1        0.1134
     13 C          66.8796   92.3857   14.7661 C.ar    1  UNL1        0.0368
     14 C          67.8905   91.5993   15.5471 C.ar    1  UNL1        0.0046
     15 C          68.9998   92.3085   16.2658 C.ar    1  UNL1        0.0207
     16 C          69.0982   93.8040   16.2036 C.ar    1  UNL1        0.0989
     17 N          68.0874   94.5903   15.4227 N.ar    1  UNL1       -0.2423
     18 C          66.9781   93.8812   14.7039 C.ar    1  UNL1        0.1003
     19 N          61.3628   87.7503    9.0713 N.pl3   1  UNL1       -0.3257
     20 H          61.2541   87.6412    8.0989 H       1  UNL1        0.1472
     21 C          61.7804   86.5824    9.9149 C.ar    1  UNL1        0.0644
     22 C          62.6584   85.5138    9.3345 C.ar    1  UNL1        0.0175
     23 C          63.0760   84.3460   10.1782 C.ar    1  UNL1        0.0219
     24 C          62.6155   84.2468   11.6023 C.ar    1  UNL1        0.0987
     25 N          61.7375   85.3155   12.1828 N.ar    1  UNL1       -0.2410
     26 C          61.3200   86.4833   11.3391 C.ar    1  UNL1        0.1131
     27 C          63.0331   83.0789   12.4460 C.ar    1  UNL1        0.0971
     28 C          62.6235   81.6508   12.2394 C.ar    1  UNL1        0.0427
     29 C          63.2708   80.8234   13.3100 C.ar    1  UNL1        0.1217
     30 N          64.0805   81.7402   14.1784 N.ar    1  UNL1       -0.1676
     31 N          63.9336   83.1342   13.6443 N.ar    1  UNL1       -0.2473
     32 C          64.5746   84.3669   14.2095 C.3     1  UNL1        0.1538
@<TRIPOS>BOND
     1     2     1    1
     2     2    19    1
     3    19    21    1
     4    21    22   ar
     5    22    23   ar
     6    23    24   ar
     7    24    27    1
     8    27    28   ar
     9    28    29   ar
    10    29    30   ar
    11    30    31   ar
    12    31    32    1
    13    24    25   ar
    14    25    26   ar
    15     2     3    1
    16     3     4    2
    17     3     5   am
    18     5     7    1
    19     7     8   ar
    20     8     9   ar
    21     9    10   ar
    22    10    13    1
    23    13    14   ar
    24    14    15   ar
    25    15    16   ar
    26    16    17   ar
    27    17    18   ar
    28    10    11   ar
    29    11    12   ar
    30    26    21   ar
    31    12     7   ar
    32    31    27   ar
    33    18    13   ar
    34    19    20    1
    35     5     6    1
@<TRIPOS>MOLECULE
*****
 32 35 0 0 0
SMALL
GASTEIGER

@<TRIPOS>ATOM
      1 C          59.2938   89.8548    7.3232 C.3     1  UNL1        0.0311
      2 C          59.9978   89.0236    8.3546 C.3     1  UNL1        0.1470
      3 C          60.8165   89.6876    9.4218 C.2     1  UNL1        0.2439
      4 O          60.1777   90.6778   10.3499 O.2     1  UNL1       -0.2730
      5 N          62.2740   89.3614    9.5608 N.am    1  UNL1       -0.2814
      6 H          62.6933   88.7115    8.9516 H       1  UNL1        0.1549
      7 C          63.0927   90.0255   10.6279 C.ar    1  UNL1        0.0698
      8 C          63.8069   91.3114   10.3340 C.ar    1  UNL1        0.0178
      9 C          64.6255   91.9755   11.4012 C.ar    1  UNL1        0.0205
     10 C          64.7300   91.3536   12.7622 C.ar    1  UNL1        0.0829
     11 N          64.0159   90.0677   13.0561 N.ar    1  UNL1       -0.2425
     12 C          63.1972   89.4036   11.9889 C.ar    1  UNL1        0.1134
     13 C          65.5487   92.0176   13.8294 C.ar    1  UNL1        0.0368
     14 C          65.2645   91.7381   15.2755 C.ar    1  UNL1        0.0046
     15 C          66.0832   92.4022   16.3427 C.ar    1  UNL1        0.0207
     16 C          67.1861   93.3457   15.9637 C.ar    1  UNL1        0.0989
     17 N          67.4702   93.6251   14.5176 N.ar    1  UNL1       -0.2423
     18 C          66.6515   92.9611   13.4505 C.ar    1  UNL1        0.1003
     19 N          59.8830   87.5284    8.3188 N.pl3   1  UNL1       -0.3257
     20 H          59.2430   87.0984    7.7067 H       1  UNL1        0.1472
     21 C          60.7433   86.6885    9.2157 C.ar    1  UNL1        0.0644
     22 C          61.8352   85.8426    8.6306 C.ar    1  UNL1        0.0175
     23 C          62.6954   85.0027    9.5275 C.ar    1  UNL1        0.0219
     24 C          62.4639   85.0087   11.0095 C.ar    1  UNL1        0.0987
     25 N          61.3721   85.8545   11.5946 N.ar    1  UNL1       -0.2410
     26 C          60.5118   86.6944   10.6977 C.ar    1  UNL1        0.1131
     27 C          63.3242   84.1687   11.9064 C.ar    1  UNL1        0.0971
     28 C          63.7034   82.7359   11.6754 C.ar    1  UNL1        0.0427
     29 C          64.5699   82.2957   12.8179 C.ar    1  UNL1        0.1217
     30 N          64.7263   83.4565   13.7550 N.ar    1  UNL1       -0.1676
     31 N          63.9565   84.6140   13.1916 N.ar    1  UNL1       -0.2473
     32 C          63.8394   85.9775   13.8057 C.3     1  UNL1        0.1538
@<TRIPOS>BOND
     1     2     1    1
     2     2    19    1
     3    19    21    1
     4    21    22   ar
     5    22    23   ar
     6    23    24   ar
     7    24    27    1
     8    27    28   ar
     9    28    29   ar
    10    29    30   ar
    11    30    31   ar
    12    31    32    1
    13    24    25   ar
    14    25    26   ar
    15     2     3    1
    16     3     4    2
    17     3     5   am
    18     5     7    1
    19     7     8   ar
    20     8     9   ar
    21     9    10   ar
    22    10    13    1
    23    13    14   ar
    24    14    15   ar
    25    15    16   ar
    26    16    17   ar
    27    17    18   ar
    28    10    11   ar
    29    11    12   ar
    30    26    21   ar
    31    12     7   ar
    32    31    27   ar
    33    18    13   ar
    34    19    20    1
    35     5     6    1
@<TRIPOS>MOLECULE
*****
 32 35 0 0 0
SMALL
GASTEIGER

@<TRIPOS>ATOM
      1 C          63.5592   82.9747   10.6297 C.3     1  UNL1        0.0311
      2 C          62.9791   84.2772   11.0956 C.3     1  UNL1        0.1470
      3 C          62.4590   85.2669   10.0957 C.2     1  UNL1        0.2439
      4 O          63.2439   85.5590    8.8513 O.2     1  UNL1       -0.2730
      5 N          61.1537   85.9647   10.3402 N.am    1  UNL1       -0.2814
      6 H          60.6385   85.7730   11.1569 H       1  UNL1        0.1549
      7 C          60.6336   86.9544    9.3403 C.ar    1  UNL1        0.0698
      8 C          59.9051   86.4751    8.1197 C.ar    1  UNL1        0.0178
      9 C          59.3849   87.4648    7.1198 C.ar    1  UNL1        0.0205
     10 C          59.5932   88.9339    7.3404 C.ar    1  UNL1        0.0829
     11 N          60.3216   89.4131    8.5610 N.ar    1  UNL1       -0.2425
     12 C          60.8418   88.4234    9.5609 C.ar    1  UNL1        0.1134
     13 C          59.0730   89.9236    6.3405 C.ar    1  UNL1        0.0368
     14 C          60.0314   90.7433    5.5282 C.ar    1  UNL1        0.0046
     15 C          59.5112   91.7330    4.5283 C.ar    1  UNL1        0.0207
     16 C          58.0327   91.9031    4.3407 C.ar    1  UNL1        0.0989
     17 N          57.0744   91.0835    5.1530 N.ar    1  UNL1       -0.2423
     18 C          57.5946   90.0937    6.1529 C.ar    1  UNL1        0.1003
     19 N          62.9193   84.5899   12.5614 N.pl3   1  UNL1       -0.3257
     20 H          62.6019   83.9088   13.1975 H       1  UNL1        0.1472
     21 C          63.3430   85.9404   13.0581 C.ar    1  UNL1        0.0644
     22 C          64.1319   86.0588   14.3283 C.ar    1  UNL1        0.0175
     23 C          64.5556   87.4093   14.8249 C.ar    1  UNL1        0.0219
     24 C          64.1903   88.6414   14.0513 C.ar    1  UNL1        0.0987
     25 N          63.4013   88.5230   12.7811 N.ar    1  UNL1       -0.2410
     26 C          62.9776   87.1726   12.2845 C.ar    1  UNL1        0.1131
     27 C          64.6140   89.9919   14.5481 C.ar    1  UNL1        0.0971
     28 C          65.6115   90.8997   13.8916 C.ar    1  UNL1        0.0427
     29 C          65.7286   92.1405   14.7261 C.ar    1  UNL1        0.1217
     30 N          64.8034   91.9996   15.8985 N.ar    1  UNL1       -0.1676
     31 N          64.1146   90.6717   15.7884 N.ar    1  UNL1       -0.2473
     32 C          63.1038   90.1205   16.7498 C.3     1  UNL1        0.1538
@<TRIPOS>BOND
     1     2     1    1
     2     2    19    1
     3    19    21    1
     4    21    22   ar
     5    22    23   ar
     6    23    24   ar
     7    24    27    1
     8    27    28   ar
     9    28    29   ar
    10    29    30   ar
    11    30    31   ar
    12    31    32    1
    13    24    25   ar
    14    25    26   ar
    15     2     3    1
    16     3     4    2
    17     3     5   am
    18     5     7    1
    19     7     8   ar
    20     8     9   ar
    21     9    10   ar
    22    10    13    1
    23    13    14   ar
    24    14    15   ar
    25    15    16   ar
    26    16    17   ar
    27    17    18   ar
    28    10    11   ar
    29    11    12   ar
    30    26    21   ar
    31    12     7   ar
    32    31    27   ar
    33    18    13   ar
    34    19    20    1
    35     5     6    1
@<TRIPOS>MOLECULE
*****
 32 35 0 0 0
SMALL
GASTEIGER

@<TRIPOS>ATOM
      1 C          59.5373   87.0357    7.5540 C.3     1  UNL1        0.0311
      2 C          59.4061   88.5085    7.8066 C.3     1  UNL1        0.1470
      3 C          60.1840   89.1514    8.9163 C.2     1  UNL1        0.2439
      4 O          59.5990   90.3090    9.6697 O.2     1  UNL1       -0.2730
      5 N          61.5472   88.6366    9.2727 N.am    1  UNL1       -0.2814
      6 H          61.9312   87.8768    8.7782 H       1  UNL1        0.1549
      7 C          62.3252   89.2794   10.3824 C.ar    1  UNL1        0.0698
      8 C          62.8947   90.6551   10.1999 C.ar    1  UNL1        0.0178
      9 C          63.6727   91.2980   11.3097 C.ar    1  UNL1        0.0205
     10 C          63.8811   90.5652   12.6018 C.ar    1  UNL1        0.0829
     11 N          63.3116   89.1896   12.7842 N.ar    1  UNL1       -0.2425
     12 C          62.5336   88.5467   11.6745 C.ar    1  UNL1        0.1134
     13 C          64.6591   91.2080   13.7115 C.ar    1  UNL1        0.0368
     14 C          66.0288   91.7589   13.4459 C.ar    1  UNL1        0.0046
     15 C          66.8068   92.4018   14.5556 C.ar    1  UNL1        0.0207
     16 C          66.2151   92.4937   15.9310 C.ar    1  UNL1        0.0989
     17 N          64.8454   91.9428   16.1965 N.ar    1  UNL1       -0.2423
     18 C          64.0675   91.3000   15.0868 C.ar    1  UNL1        0.1003
     19 N          58.4968   89.3384    6.9495 N.pl3   1  UNL1       -0.3257
     20 H          57.5211   89.2797    7.0664 H       1  UNL1        0.1472
     21 C          59.0743   90.2576    5.9143 C.ar    1  UNL1        0.0644
     22 C          58.1778   91.1917    5.1569 C.ar    1  UNL1        0.0175
     23 C          58.7553   92.1109    4.1218 C.ar    1  UNL1        0.0219
     24 C          60.2293   92.0960    3.8440 C.ar    1  UNL1        0.0987
     25 N          61.1258   91.1619    4.6015 N.ar    1  UNL1       -0.2410
     26 C          60.5483   90.2427    5.6366 C.ar    1  UNL1        0.1131
     27 C          60.8067   93.0153    2.8088 C.ar    1  UNL1        0.0971
     28 C          60.1110   94.1888    2.1853 C.ar    1  UNL1        0.0427
     29 C          61.0555   94.8212    1.2065 C.ar    1  UNL1        0.1217
     30 N          62.3350   94.0384    1.2252 N.ar    1  UNL1       -0.1676
     31 N          62.1812   92.9223    2.2155 N.ar    1  UNL1       -0.2473
     32 C          63.2196   91.8939    2.5531 C.3     1  UNL1        0.1538
@<TRIPOS>BOND
     1     2     1    1
     2     2    19    1
     3    19    21    1
     4    21    22   ar
     5    22    23   ar
     6    23    24   ar
     7    24    27    1
     8    27    28   ar
     9    28    29   ar
    10    29    30   ar
    11    30    31   ar
    12    31    32    1
    13    24    25   ar
    14    25    26   ar
    15     2     3    1
    16     3     4    2
    17     3     5   am
    18     5     7    1
    19     7     8   ar
    20     8     9   ar
    21     9    10   ar
    22    10    13    1
    23    13    14   ar
    24    14    15   ar
    25    15    16   ar
    26    16    17   ar
    27    17    18   ar
    28    10    11   ar
    29    11    12   ar
    30    26    21   ar
    31    12     7   ar
    32    31    27   ar
    33    18    13   ar
    34    19    20    1
    35     5     6    1
@<TRIPOS>MOLECULE
*****
 32 35 0 0 0
SMALL
GASTEIGER

@<TRIPOS>ATOM
      1 C          57.2376   91.2432    4.8049 C.3     1  UNL1        0.0311
      2 C          58.6766   91.5055    5.1374 C.3     1  UNL1        0.1470
      3 C          59.4802   90.4670    5.8625 C.2     1  UNL1        0.2439
      4 O          60.8512   90.1037    5.3742 O.2     1  UNL1       -0.2730
      5 N          58.9128   89.7918    7.0758 N.am    1  UNL1       -0.2814
      6 H          58.0129   90.0302    7.3963 H       1  UNL1        0.1549
      7 C          59.7164   88.7532    7.8009 C.ar    1  UNL1        0.0698
      8 C          59.6064   87.3100    7.4071 C.ar    1  UNL1        0.0178
      9 C          60.4101   86.2715    8.1321 C.ar    1  UNL1        0.0205
     10 C          61.3236   86.6762    9.2510 C.ar    1  UNL1        0.0829
     11 N          61.4335   88.1194    9.6447 N.ar    1  UNL1       -0.2425
     12 C          60.6299   89.1579    8.9196 C.ar    1  UNL1        0.1134
     13 C          62.1272   85.6377    9.9760 C.ar    1  UNL1        0.0368
     14 C          63.0561   84.7405    9.2130 C.ar    1  UNL1        0.0046
     15 C          63.8597   83.7020    9.9380 C.ar    1  UNL1        0.0207
     16 C          63.7344   83.5607   11.4261 C.ar    1  UNL1        0.0989
     17 N          62.8055   84.4579   12.1891 N.ar    1  UNL1       -0.2423
     18 C          62.0019   85.4964   11.4641 C.ar    1  UNL1        0.1003
     19 N          59.3119   92.8063    4.7448 N.pl3   1  UNL1       -0.3257
     20 H          59.2596   93.5819    5.3490 H       1  UNL1        0.1472
     21 C          60.0271   92.9256    3.4316 C.ar    1  UNL1        0.0644
     22 C          59.3701   93.6285    2.2809 C.ar    1  UNL1        0.0175
     23 C          60.0853   93.7477    0.9678 C.ar    1  UNL1        0.0219
     24 C          61.4574   93.1640    0.8054 C.ar    1  UNL1        0.0987
     25 N          62.1144   92.4611    1.9561 N.ar    1  UNL1       -0.2410
     26 C          61.3993   92.3418    3.2692 C.ar    1  UNL1        0.1131
     27 C          62.1726   93.2832   -0.5078 C.ar    1  UNL1        0.0971
     28 C          61.5582   93.1101   -1.8652 C.ar    1  UNL1        0.0427
     29 C          62.6335   93.3164   -2.8905 C.ar    1  UNL1        0.1217
     30 N          63.9125   93.6170   -2.1666 N.ar    1  UNL1       -0.1676
     31 N          63.6276   93.5965   -0.6941 N.ar    1  UNL1       -0.2473
     32 C          64.6230   93.8455    0.4001 C.3     1  UNL1        0.1538
@<TRIPOS>BOND
     1     2     1    1
     2     2    19    1
     3    19    21    1
     4    21    22   ar
     5    22    23   ar
     6    23    24   ar
     7    24    27    1
     8    27    28   ar
     9    28    29   ar
    10    29    30   ar
    11    30    31   ar
    12    31    32    1
    13    24    25   ar
    14    25    26   ar
    15     2     3    1
    16     3     4    2
    17     3     5   am
    18     5     7    1
    19     7     8   ar
    20     8     9   ar
    21     9    10   ar
    22    10    13    1
    23    13    14   ar
    24    14    15   ar
    25    15    16   ar
    26    16    17   ar
    27    17    18   ar
    28    10    11   ar
    29    11    12   ar
    30    26    21   ar
    31    12     7   ar
    32    31    27   ar
    33    18    13   ar
    34    19    20    1
    35     5     6    1
@<TRIPOS>MOLECULE
*****
 32 35 0 0 0
SMALL
GASTEIGER

@<TRIPOS>ATOM
      1 C          63.1004   89.3590   17.1273 C.3     1  UNL1        0.0311
      2 C          63.5138   89.9735   15.8228 C.3     1  UNL1        0.1470
      3 C          63.0357   89.3817   14.5301 C.2     1  UNL1        0.2439
      4 O          61.8003   89.9193   13.8706 O.2     1  UNL1       -0.2730
      5 N          63.7929   88.2522   13.8968 N.am    1  UNL1       -0.2814
      6 H          64.6037   87.8994   14.3296 H       1  UNL1        0.1549
      7 C          63.3147   87.6604   12.6041 C.ar    1  UNL1        0.0698
      8 C          62.9142   88.5581   11.4710 C.ar    1  UNL1        0.0178
      9 C          62.4361   87.9663   10.1783 C.ar    1  UNL1        0.0205
     10 C          62.3584   86.4768   10.0186 C.ar    1  UNL1        0.0829
     11 N          62.7589   85.5792   11.1517 N.ar    1  UNL1       -0.2425
     12 C          63.2370   86.1710   12.4444 C.ar    1  UNL1        0.1134
     13 C          61.8802   85.8850    8.7259 C.ar    1  UNL1        0.0368
     14 C          60.4683   86.1130    8.2735 C.ar    1  UNL1        0.0046
     15 C          59.9901   85.5212    6.9808 C.ar    1  UNL1        0.0207
     16 C          60.9239   84.7014    6.1405 C.ar    1  UNL1        0.0989
     17 N          62.3357   84.4734    6.5929 N.ar    1  UNL1       -0.2423
     18 C          62.8139   85.0652    7.8856 C.ar    1  UNL1        0.1003
     19 N          64.4054   91.1797   15.8111 N.pl3   1  UNL1       -0.3257
     20 H          64.5270   91.7099   16.6316 H       1  UNL1        0.1472
     21 C          65.1117   91.5780   14.5491 C.ar    1  UNL1        0.0644
     22 C          66.6044   91.7252   14.5395 C.ar    1  UNL1        0.0175
     23 C          67.3106   92.1236   13.2776 C.ar    1  UNL1        0.0219
     24 C          66.5241   92.3748   12.0252 C.ar    1  UNL1        0.0987
     25 N          65.0314   92.2276   12.0348 N.ar    1  UNL1       -0.2410
     26 C          64.3252   91.8292   13.2968 C.ar    1  UNL1        0.1131
     27 C          67.2304   92.7732   10.7633 C.ar    1  UNL1        0.0971
     28 C          68.1499   91.9055    9.9560 C.ar    1  UNL1        0.0427
     29 C          68.6290   92.7052    8.7808 C.ar    1  UNL1        0.1217
     30 N          68.0056   94.0671    8.8619 N.ar    1  UNL1       -0.1676
     31 N          67.1413   94.1091   10.0871 N.ar    1  UNL1       -0.2473
     32 C          66.3302   95.2813   10.5541 C.3     1  UNL1        0.1538
@<TRIPOS>BOND
     1     2     1    1
     2     2    19    1
     3    19    21    1
     4    21    22   ar
     5    22    23   ar
     6    23    24   ar
     7    24    27    1
     8    27    28   ar
     9    28    29   ar
    10    29    30   ar
    11    30    31   ar
    12    31    32    1
    13    24    25   ar
    14    25    26   ar
    15     2     3    1
    16     3     4    2
    17     3     5   am
    18     5     7    1
    19     7     8   ar
    20     8     9   ar
    21     9    10   ar
    22    10    13    1
    23    13    14   ar
    24    14    15   ar
    25    15    16   ar
    26    16    17   ar
    27    17    18   ar
    28    10    11   ar
    29    11    12   ar
    30    26    21   ar
    31    12     7   ar
    32    31    27   ar
    33    18    13   ar
    34    19    20    1
    35     5     6    1
