@<TRIPOS>MOLECULE
*****
 17 17 0 0 0
SMALL
GASTEIGER

@<TRIPOS>ATOM
      1 C          63.5914   83.6603   11.3424 C.ar    1  UNL1       -0.0224
      2 C          62.8032   84.6143   12.1902 C.ar    1  UNL1       -0.0027
      3 C          62.0485   85.7405   11.5483 C.ar    1  UNL1        0.0185
      4 C          62.0820   85.9128   10.0586 C.ar    1  UNL1        0.0791
      5 C          62.8702   84.9589    9.2108 C.ar    1  UNL1       -0.0045
      6 C          62.9037   85.1312    7.7211 C.3     1  UNL1        0.0326
      7 C          63.6249   83.8327    9.8527 C.ar    1  UNL1       -0.0070
      8 N          61.3273   87.0391    9.4167 N.2     1  UNL1       -0.2245
      9 C          61.6014   88.4555    9.8272 C.2     1  UNL1        0.1958
     10 N          60.8467   89.5818    9.1853 N.3     1  UNL1       -0.2481
     11 O          60.0838   90.5541   10.0355 O.3     1  UNL1       -0.2879
     12 H          60.8520   89.6828    8.2060 H       1  UNL1        0.1956
     13 H          60.1822   90.3130   10.9699 H       1  UNL1        0.2442
     14 C          64.3461   82.5341   11.9843 C.3     1  UNL1        0.0263
     15 C          63.7363   81.7780   13.1273 C.3     1  UNL1        0.0047
     16 C          61.3647   81.0762   13.9228 C.3     1  UNL1        0.0000
     17 C          62.4762   80.9915   12.9190 C.3     1  UNL1        0.0003
@<TRIPOS>BOND
     1    16    17    1
     2    17    15    1
     3    15    14    1
     4    14     1    1
     5     1     2   ar
     6     2     3   ar
     7     3     4   ar
     8     4     8    1
     9     8     9    2
    10     9    10    1
    11    10    11    1
    12     4     5   ar
    13     5     6    1
    14     5     7   ar
    15     7     1   ar
    16    10    12    1
    17    11    13    1
@<TRIPOS>MOLECULE
*****
 17 17 0 0 0
SMALL
GASTEIGER

@<TRIPOS>ATOM
      1 C          62.3744   88.9881   10.5284 C.ar    1  UNL1       -0.0224
      2 C          62.6625   90.3387    9.9429 C.ar    1  UNL1       -0.0027
      3 C          63.4230   91.3556   10.7414 C.ar    1  UNL1        0.0185
      4 C          63.8955   91.0218   12.1253 C.ar    1  UNL1        0.0791
      5 C          63.6074   89.6712   12.7108 C.ar    1  UNL1       -0.0045
      6 C          64.0799   89.3374   14.0948 C.3     1  UNL1        0.0326
      7 C          62.8469   88.6543   11.9123 C.ar    1  UNL1       -0.0070
      8 N          64.6560   92.0387   12.9238 N.2     1  UNL1       -0.2245
      9 C          65.9187   92.6327   12.3735 C.2     1  UNL1        0.1958
     10 N          66.6792   93.6496   13.1720 N.3     1  UNL1       -0.2481
     11 O          66.2186   94.0173   14.5514 O.3     1  UNL1       -0.2879
     12 H          67.4807   94.0757   12.7908 H       1  UNL1        0.1956
     13 H          65.4217   93.5101   14.7721 H       1  UNL1        0.2442
     14 C          61.6139   87.9712    9.7299 C.3     1  UNL1        0.0263
     15 C          61.4830   86.5653   10.2361 C.3     1  UNL1        0.0047
     16 C          62.9421   85.4343    8.4079 C.3     1  UNL1        0.0000
     17 C          62.4886   85.5271    9.8347 C.3     1  UNL1        0.0003
@<TRIPOS>BOND
     1    16    17    1
     2    17    15    1
     3    15    14    1
     4    14     1    1
     5     1     2   ar
     6     2     3   ar
     7     3     4   ar
     8     4     8    1
     9     8     9    2
    10     9    10    1
    11    10    11    1
    12     4     5   ar
    13     5     6    1
    14     5     7   ar
    15     7     1   ar
    16    10    12    1
    17    11    13    1
@<TRIPOS>MOLECULE
*****
 17 17 0 0 0
SMALL
GASTEIGER

@<TRIPOS>ATOM
      1 C          65.3041   92.3477   11.6903 C.ar    1  UNL1       -0.0224
      2 C          64.3651   91.9659   10.5847 C.ar    1  UNL1       -0.0027
      3 C          63.2534   90.9937   10.8471 C.ar    1  UNL1        0.0185
      4 C          63.0807   90.4032   12.2151 C.ar    1  UNL1        0.0791
      5 C          64.0197   90.7850   13.3207 C.ar    1  UNL1       -0.0045
      6 C          63.8471   90.1945   14.6888 C.3     1  UNL1        0.0326
      7 C          65.1314   91.7572   13.0583 C.ar    1  UNL1       -0.0070
      8 N          61.9689   89.4310   12.4775 N.2     1  UNL1       -0.2245
      9 C          60.8785   89.2472   11.4641 C.2     1  UNL1        0.1958
     10 N          59.7668   88.2750   11.7265 N.3     1  UNL1       -0.2481
     11 O          58.7586   88.5605   12.7999 O.3     1  UNL1       -0.2879
     12 H          59.6988   87.4496   11.1942 H       1  UNL1        0.1956
     13 H          58.9691   89.4069   13.2243 H       1  UNL1        0.2442
     14 C          66.4159   93.3199   11.4279 C.3     1  UNL1        0.0263
     15 C          66.5891   93.9097   10.0597 C.3     1  UNL1        0.0047
     16 C          68.4310   92.2042    9.3897 C.3     1  UNL1        0.0000
     17 C          67.7898   93.5515    9.2351 C.3     1  UNL1        0.0003
@<TRIPOS>BOND
     1    16    17    1
     2    17    15    1
     3    15    14    1
     4    14     1    1
     5     1     2   ar
     6     2     3   ar
     7     3     4   ar
     8     4     8    1
     9     8     9    2
    10     9    10    1
    11    10    11    1
    12     4     5   ar
    13     5     6    1
    14     5     7   ar
    15     7     1   ar
    16    10    12    1
    17    11    13    1
@<TRIPOS>MOLECULE
*****
 17 17 0 0 0
SMALL
GASTEIGER

@<TRIPOS>ATOM
      1 C          63.3048   89.8750   12.2157 C.ar    1  UNL1       -0.0224
      2 C          62.6273   90.6795   11.1464 C.ar    1  UNL1       -0.0027
      3 C          61.7807   89.9942   10.1151 C.ar    1  UNL1        0.0185
      4 C          61.6116   88.5043   10.1532 C.ar    1  UNL1        0.0791
      5 C          62.2891   87.6997   11.2225 C.ar    1  UNL1       -0.0045
      6 C          62.1201   86.2097   11.2607 C.3     1  UNL1        0.0326
      7 C          63.1357   88.3850   12.2538 C.ar    1  UNL1       -0.0070
      8 N          60.7650   87.8189    9.1219 N.2     1  UNL1       -0.2245
      9 C          59.7741   88.6089    8.3195 C.2     1  UNL1        0.1958
     10 N          58.9275   87.9235    7.2882 N.3     1  UNL1       -0.2481
     11 O          58.3991   86.5439    7.5479 O.3     1  UNL1       -0.2879
     12 H          58.7186   88.3792    6.4408 H       1  UNL1        0.1956
     13 H          58.6953   86.2434    8.4214 H       1  UNL1        0.2442
     14 C          64.1514   90.5603   13.2470 C.3     1  UNL1        0.0263
     15 C          64.4613   89.8701   14.5422 C.3     1  UNL1        0.0047
     16 C          63.1515   88.9428   16.5855 C.3     1  UNL1        0.0000
     17 C          63.5924   90.1027   15.7426 C.3     1  UNL1        0.0003
@<TRIPOS>BOND
     1    16    17    1
     2    17    15    1
     3    15    14    1
     4    14     1    1
     5     1     2   ar
     6     2     3   ar
     7     3     4   ar
     8     4     8    1
     9     8     9    2
    10     9    10    1
    11    10    11    1
    12     4     5   ar
    13     5     6    1
    14     5     7   ar
    15     7     1   ar
    16    10    12    1
    17    11    13    1
@<TRIPOS>MOLECULE
*****
 17 17 0 0 0
SMALL
GASTEIGER

@<TRIPOS>ATOM
      1 C          62.6541   89.6821   10.8249 C.ar    1  UNL1       -0.0224
      2 C          63.1823   90.9839   10.2992 C.ar    1  UNL1       -0.0027
      3 C          64.0773   91.8305   11.1549 C.ar    1  UNL1        0.0185
      4 C          64.4442   91.3754   12.5363 C.ar    1  UNL1        0.0791
      5 C          63.9160   90.0736   13.0620 C.ar    1  UNL1       -0.0045
      6 C          64.2828   89.6184   14.4434 C.3     1  UNL1        0.0326
      7 C          63.0209   89.2270   12.2063 C.ar    1  UNL1       -0.0070
      8 N          65.3392   92.2220   13.3920 N.2     1  UNL1       -0.2245
      9 C          66.8289   92.0816   13.2874 C.2     1  UNL1        0.1958
     10 N          67.7239   92.9282   14.1431 N.3     1  UNL1       -0.2481
     11 O          69.1516   92.5245   14.3639 O.3     1  UNL1       -0.2879
     12 H          67.3743   93.7488   14.5597 H       1  UNL1        0.1956
     13 H          69.3318   91.6993   13.8869 H       1  UNL1        0.2442
     14 C          61.7591   88.8355    9.9692 C.3     1  UNL1        0.0263
     15 C          60.4310   89.3669    9.5179 C.3     1  UNL1        0.0047
     16 C          59.3891   87.5344    7.9992 C.3     1  UNL1        0.0000
     17 C          59.8641   88.9437    8.1952 C.3     1  UNL1        0.0003
@<TRIPOS>BOND
     1    16    17    1
     2    17    15    1
     3    15    14    1
     4    14     1    1
     5     1     2   ar
     6     2     3   ar
     7     3     4   ar
     8     4     8    1
     9     8     9    2
    10     9    10    1
    11    10    11    1
    12     4     5   ar
    13     5     6    1
    14     5     7   ar
    15     7     1   ar
    16    10    12    1
    17    11    13    1
@<TRIPOS>MOLECULE
*****
 17 17 0 0 0
SMALL
GASTEIGER

@<TRIPOS>ATOM
      1 C          61.8272   85.6420    9.0972 C.ar    1  UNL1       -0.0224
      2 C          61.3946   86.2134   10.4149 C.ar    1  UNL1       -0.0027
      3 C          62.0020   85.7049   11.6886 C.ar    1  UNL1        0.0185
      4 C          63.0419   84.6249   11.6447 C.ar    1  UNL1        0.0791
      5 C          63.4745   84.0534   10.3271 C.ar    1  UNL1       -0.0045
      6 C          64.5146   82.9734   10.2832 C.3     1  UNL1        0.0326
      7 C          62.8672   84.5620    9.0533 C.ar    1  UNL1       -0.0070
      8 N          63.6493   84.1164   12.9185 N.2     1  UNL1       -0.2245
      9 C          63.9537   85.0686   14.0368 C.2     1  UNL1        0.1958
     10 N          64.5611   84.5601   15.3105 N.3     1  UNL1       -0.2481
     11 O          64.4563   83.1058   15.6631 O.3     1  UNL1       -0.2879
     12 H          65.0285   85.1807   15.9151 H       1  UNL1        0.1956
     13 H          63.9692   82.6385   14.9665 H       1  UNL1        0.2442
     14 C          61.2198   86.1505    7.8235 C.3     1  UNL1        0.0263
     15 C          59.7324   86.3101    7.7132 C.3     1  UNL1        0.0047
     16 C          59.8979   88.8535    8.2169 C.3     1  UNL1        0.0000
     17 C          59.1249   87.6813    7.6890 C.3     1  UNL1        0.0003
@<TRIPOS>BOND
     1    16    17    1
     2    17    15    1
     3    15    14    1
     4    14     1    1
     5     1     2   ar
     6     2     3   ar
     7     3     4   ar
     8     4     8    1
     9     8     9    2
    10     9    10    1
    11    10    11    1
    12     4     5   ar
    13     5     6    1
    14     5     7   ar
    15     7     1   ar
    16    10    12    1
    17    11    13    1
@<TRIPOS>MOLECULE
*****
 17 17 0 0 0
SMALL
GASTEIGER

@<TRIPOS>ATOM
      1 C          63.2819   84.1949   10.3437 C.ar    1  UNL1       -0.0224
      2 C          63.3494   84.4124    8.8611 C.ar    1  UNL1       -0.0027
      3 C          62.5791   85.5353    8.2320 C.ar    1  UNL1        0.0185
      4 C          61.7413   86.4406    9.0854 C.ar    1  UNL1        0.0791
      5 C          61.6738   86.2231   10.5680 C.ar    1  UNL1       -0.0045
      6 C          60.8360   87.1285   11.4215 C.3     1  UNL1        0.0326
      7 C          62.4441   85.1003   11.1971 C.ar    1  UNL1       -0.0070
      8 N          60.9711   87.5635    8.4563 N.2     1  UNL1       -0.2245
      9 C          59.6354   87.2970    7.8279 C.2     1  UNL1        0.1958
     10 N          58.8651   88.4199    7.1987 N.3     1  UNL1       -0.2481
     11 O          59.5698   89.6837    6.8033 O.3     1  UNL1       -0.2879
     12 H          57.8970   88.3274    7.0453 H       1  UNL1        0.1956
     13 H          60.5120   89.6104    7.0219 H       1  UNL1        0.2442
     14 C          64.0522   83.0720   10.9729 C.3     1  UNL1        0.0263
     15 C          63.3832   81.7539   11.2277 C.3     1  UNL1        0.0047
     16 C          61.9218   81.4624   13.3559 C.3     1  UNL1        0.0000
     17 C          63.2196   81.2551   12.6328 C.3     1  UNL1        0.0003
@<TRIPOS>BOND
     1    16    17    1
     2    17    15    1
     3    15    14    1
     4    14     1    1
     5     1     2   ar
     6     2     3   ar
     7     3     4   ar
     8     4     8    1
     9     8     9    2
    10     9    10    1
    11    10    11    1
    12     4     5   ar
    13     5     6    1
    14     5     7   ar
    15     7     1   ar
    16    10    12    1
    17    11    13    1
@<TRIPOS>MOLECULE
*****
 17 17 0 0 0
SMALL
GASTEIGER

@<TRIPOS>ATOM
      1 C          62.3216   86.0829    9.8836 C.ar    1  UNL1       -0.0224
      2 C          61.8546   86.2436   11.3000 C.ar    1  UNL1       -0.0027
      3 C          62.1899   85.1994   12.3233 C.ar    1  UNL1        0.0185
      4 C          62.9921   83.9944   11.9302 C.ar    1  UNL1        0.0791
      5 C          63.4591   83.8338   10.5139 C.ar    1  UNL1       -0.0045
      6 C          64.2614   82.6288   10.1208 C.3     1  UNL1        0.0326
      7 C          63.1238   84.8780    9.4906 C.ar    1  UNL1       -0.0070
      8 N          63.3274   82.9502   12.9535 N.2     1  UNL1       -0.2245
      9 C          62.2289   82.2156   13.6632 C.2     1  UNL1        0.1958
     10 N          62.5642   81.1714   14.6865 N.3     1  UNL1       -0.2481
     11 O          63.6243   80.1504   14.3967 O.3     1  UNL1       -0.2879
     12 H          62.0886   81.1561   15.5483 H       1  UNL1        0.1956
     13 H          63.9899   80.3061   13.5118 H       1  UNL1        0.2442
     14 C          61.9863   87.1272    8.8603 C.3     1  UNL1        0.0263
     15 C          60.8157   88.0399    9.0759 C.3     1  UNL1        0.0047
     16 C          58.9829   86.8030    7.7116 C.3     1  UNL1        0.0000
     17 C          59.6953   88.0710    8.0790 C.3     1  UNL1        0.0003
@<TRIPOS>BOND
     1    16    17    1
     2    17    15    1
     3    15    14    1
     4    14     1    1
     5     1     2   ar
     6     2     3   ar
     7     3     4   ar
     8     4     8    1
     9     8     9    2
    10     9    10    1
    11    10    11    1
    12     4     5   ar
    13     5     6    1
    14     5     7   ar
    15     7     1   ar
    16    10    12    1
    17    11    13    1
@<TRIPOS>MOLECULE
*****
 17 17 0 0 0
SMALL
GASTEIGER

@<TRIPOS>ATOM
      1 C          62.8793   90.1569   11.8792 C.ar    1  UNL1       -0.0224
      2 C          63.4628   89.8537   13.2274 C.ar    1  UNL1       -0.0027
      3 C          64.6674   90.6062   13.7097 C.ar    1  UNL1        0.0185
      4 C          65.2886   91.6619   12.8439 C.ar    1  UNL1        0.0791
      5 C          64.7051   91.9651   11.4958 C.ar    1  UNL1       -0.0045
      6 C          65.3262   93.0208   10.6299 C.3     1  UNL1        0.0326
      7 C          63.5004   91.2126   11.0134 C.ar    1  UNL1       -0.0070
      8 N          66.4932   92.4144   13.3263 N.2     1  UNL1       -0.2245
      9 C          67.6257   91.6783   13.9786 C.2     1  UNL1        0.1958
     10 N          68.8303   92.4307   14.4609 N.3     1  UNL1       -0.2481
     11 O          70.1572   92.2316   13.7902 O.3     1  UNL1       -0.2879
     12 H          68.7501   93.0553   15.2177 H       1  UNL1        0.1956
     13 H          70.0622   91.5889   13.0699 H       1  UNL1        0.2442
     14 C          61.6747   89.4045   11.3969 C.3     1  UNL1        0.0263
     15 C          61.6925   88.7441   10.0502 C.3     1  UNL1        0.0047
     16 C          61.2543   86.3189   10.8724 C.3     1  UNL1        0.0000
     17 C          61.9460   87.2698    9.9411 C.3     1  UNL1        0.0003
@<TRIPOS>BOND
     1    16    17    1
     2    17    15    1
     3    15    14    1
     4    14     1    1
     5     1     2   ar
     6     2     3   ar
     7     3     4   ar
     8     4     8    1
     9     8     9    2
    10     9    10    1
    11    10    11    1
    12     4     5   ar
    13     5     6    1
    14     5     7   ar
    15     7     1   ar
    16    10    12    1
    17    11    13    1
