@<TRIPOS>MOLECULE
*****
 28 31 0 0 0
SMALL
GASTEIGER

@<TRIPOS>ATOM
      1 C          60.2007   94.2827   -1.9884 C.2     1  UNL1        0.2463
      2 O          60.8330   93.4980   -3.0995 O.2     1  UNL1       -0.2729
      3 N          58.7113   94.2661   -1.8117 N.am    1  UNL1       -0.2825
      4 H          58.2963   94.7811   -1.0824 H       1  UNL1        0.1549
      5 C          57.8540   93.4649   -2.7461 C.ar    1  UNL1        0.0503
      6 C          56.9763   92.3735   -2.2090 C.ar    1  UNL1        0.0147
      7 C          56.1190   91.5722   -3.1434 C.ar    1  UNL1        0.0033
      8 C          56.1395   91.8624   -4.6150 C.ar    1  UNL1        0.0239
      9 C          57.0172   92.9538   -5.1521 C.ar    1  UNL1        0.0033
     10 C          57.8745   93.7550   -4.2176 C.ar    1  UNL1        0.0147
     11 C          55.2823   91.0612   -5.5494 C.ar    1  UNL1        0.1108
     12 N          54.4333   89.8825   -5.1753 N.ar    1  UNL1       -0.2368
     13 C          53.7498   89.3908   -6.4167 C.ar    1  UNL1        0.1064
     14 C          54.1764   90.2656   -7.5581 C.ar    1  UNL1        0.0575
     15 S          55.1235   91.2980   -7.0221 S.2     1  UNL1       -0.0659
     16 C          61.0579   95.0839   -1.0539 C.3     1  UNL1        0.1774
     17 C          59.8175   91.9943    3.8452 C.3     1  UNL1        0.1235
     18 N          60.8259   92.5077    2.8604 N.am    1  UNL1       -0.2203
     19 C          62.3057   92.2668    2.9071 C.2     1  UNL1        0.2524
     20 O          63.0370   91.4702    3.9467 O.2     1  UNL1       -0.2698
     21 C          62.9259   92.9623    1.7317 C.2     1  UNL1        0.0496
     22 C          61.8295   93.6331    0.9586 C.2     1  UNL1        0.1032
     23 C          60.5315   93.3522    1.6562 C.2     1  UNL1        0.2683
     24 O          59.1771   93.8315    1.2251 O.2     1  UNL1       -0.2681
     25 N          62.1545   94.4131   -0.2808 N.pl3   1  UNL1       -0.2964
     26 C          63.5760   94.5223   -0.7470 C.3     1  UNL1        0.0917
     27 C          64.6724   93.8515    0.0261 C.3     1  UNL1        0.0263
     28 C          64.3474   93.0715    1.2655 C.3     1  UNL1        0.0342
@<TRIPOS>BOND
     1    17    18    1
     2    18    19   am
     3    19    20    2
     4    19    21    1
     5    21    22    2
     6    22    23    1
     7    23    24    2
     8    22    25    1
     9    25    16    1
    10    16     1    1
    11     1     2    2
    12     1     3   am
    13     3     5    1
    14     5     6   ar
    15     6     7   ar
    16     7     8   ar
    17     8    11    1
    18    11    12   ar
    19    12    13   ar
    20    13    14   ar
    21    14    15   ar
    22     8     9   ar
    23     9    10   ar
    24    25    26    1
    25    26    27    1
    26    27    28    1
    27    23    18   am
    28    10     5   ar
    29    28    21    1
    30    15    11   ar
    31     3     4    1
@<TRIPOS>MOLECULE
*****
 28 31 0 0 0
SMALL
GASTEIGER

@<TRIPOS>ATOM
      1 C          59.0527   90.1471    6.0868 C.2     1  UNL1        0.2463
      2 O          57.9874   90.5795    5.1233 O.2     1  UNL1       -0.2729
      3 N          60.4887   90.4889    5.8201 N.am    1  UNL1       -0.2825
      4 H          61.1879   90.2051    6.4524 H       1  UNL1        0.1549
      5 C          60.8594   91.2631    4.5900 C.ar    1  UNL1        0.0503
      6 C          59.9001   92.2632    4.0157 C.ar    1  UNL1        0.0147
      7 C          60.2709   93.0373    2.7856 C.ar    1  UNL1        0.0033
      8 C          61.6009   92.8114    2.1297 C.ar    1  UNL1        0.0239
      9 C          62.5601   91.8114    2.7040 C.ar    1  UNL1        0.0033
     10 C          62.1893   91.0372    3.9341 C.ar    1  UNL1        0.0147
     11 C          61.9716   93.5856    0.8996 C.ar    1  UNL1        0.1108
     12 N          62.9447   94.7253    0.8350 N.ar    1  UNL1       -0.2368
     13 C          63.0089   95.2001   -0.5865 C.ar    1  UNL1        0.1064
     14 C          62.0754   94.3538   -1.4004 C.ar    1  UNL1        0.0575
     15 S          61.4344   93.3560   -0.4819 S.2     1  UNL1       -0.0659
     16 C          58.6820   89.3730    7.3169 C.3     1  UNL1        0.1774
     17 C          61.6979   89.8552   12.3920 C.3     1  UNL1        0.1235
     18 N          61.3269   89.0546   11.1790 N.am    1  UNL1       -0.2203
     19 C          61.8178   87.6763   10.8483 C.2     1  UNL1        0.2524
     20 O          62.7658   86.8566   11.6725 O.2     1  UNL1       -0.2698
     21 C          61.1941   87.2615    9.5487 C.2     1  UNL1        0.0496
     22 C          60.3178   88.3834    9.0761 C.2     1  UNL1        0.1032
     23 C          60.3999   89.4916   10.0837 C.2     1  UNL1        0.2683
     24 O          59.6811   90.8061   10.0091 O.2     1  UNL1       -0.2681
     25 N          59.5583   88.2510    7.7894 N.pl3   1  UNL1       -0.2964
     26 C          59.6752   86.9966    6.9752 C.3     1  UNL1        0.0917
     27 C          60.5515   85.8747    7.4478 C.3     1  UNL1        0.0263
     28 C          61.3110   86.0071    8.7345 C.3     1  UNL1        0.0342
@<TRIPOS>BOND
     1    17    18    1
     2    18    19   am
     3    19    20    2
     4    19    21    1
     5    21    22    2
     6    22    23    1
     7    23    24    2
     8    22    25    1
     9    25    16    1
    10    16     1    1
    11     1     2    2
    12     1     3   am
    13     3     5    1
    14     5     6   ar
    15     6     7   ar
    16     7     8   ar
    17     8    11    1
    18    11    12   ar
    19    12    13   ar
    20    13    14   ar
    21    14    15   ar
    22     8     9   ar
    23     9    10   ar
    24    25    26    1
    25    26    27    1
    26    27    28    1
    27    23    18   am
    28    10     5   ar
    29    28    21    1
    30    15    11   ar
    31     3     4    1
@<TRIPOS>MOLECULE
*****
 28 31 0 0 0
SMALL
GASTEIGER

@<TRIPOS>ATOM
      1 C          58.5318   95.0083   -0.8683 C.2     1  UNL1        0.2463
      2 O          57.2621   95.6646   -1.3236 O.2     1  UNL1       -0.2729
      3 N          58.9260   93.6717   -1.4234 N.am    1  UNL1       -0.2825
      4 H          59.7593   93.2410   -1.1245 H       1  UNL1        0.1549
      5 C          58.0506   92.9915   -2.4338 C.ar    1  UNL1        0.0503
      6 C          58.3326   93.1504   -3.8985 C.ar    1  UNL1        0.0147
      7 C          57.4572   92.4701   -4.9089 C.ar    1  UNL1        0.0033
      8 C          56.2999   91.6309   -4.4547 C.ar    1  UNL1        0.0239
      9 C          56.0179   91.4720   -2.9900 C.ar    1  UNL1        0.0033
     10 C          56.8933   92.1523   -1.9796 C.ar    1  UNL1        0.0147
     11 C          55.4245   90.9507   -5.4651 C.ar    1  UNL1        0.1108
     12 N          54.4426   89.8521   -5.1838 N.ar    1  UNL1       -0.2368
     13 C          53.7886   89.4720   -6.4791 C.ar    1  UNL1        0.1064
     14 C          54.3662   90.3356   -7.5609 C.ar    1  UNL1        0.0575
     15 S          55.3773   91.2495   -6.9343 S.2     1  UNL1       -0.0659
     16 C          59.4071   95.6885    0.1421 C.3     1  UNL1        0.1774
     17 C          62.9443   91.7315    2.7718 C.3     1  UNL1        0.1235
     18 N          62.7775   92.9241    1.8774 N.am    1  UNL1       -0.2203
     19 C          63.8806   93.6671    1.1837 C.2     1  UNL1        0.2524
     20 O          65.3441   93.3479    1.2624 O.2     1  UNL1       -0.2698
     21 C          63.2632   94.7853    0.3973 C.2     1  UNL1        0.0496
     22 C          61.7786   94.7335    0.6050 C.2     1  UNL1        0.1032
     23 C          61.4784   93.5832    1.5198 C.2     1  UNL1        0.2683
     24 O          60.1179   93.1654    1.9937 O.2     1  UNL1       -0.2681
     25 N          60.8918   95.7404   -0.0656 N.pl3   1  UNL1       -0.2964
     26 C          61.4897   96.7992   -0.9440 C.3     1  UNL1        0.0917
     27 C          62.9743   96.8510   -1.1517 C.3     1  UNL1        0.0263
     28 C          63.8610   95.8441   -0.4811 C.3     1  UNL1        0.0342
@<TRIPOS>BOND
     1    17    18    1
     2    18    19   am
     3    19    20    2
     4    19    21    1
     5    21    22    2
     6    22    23    1
     7    23    24    2
     8    22    25    1
     9    25    16    1
    10    16     1    1
    11     1     2    2
    12     1     3   am
    13     3     5    1
    14     5     6   ar
    15     6     7   ar
    16     7     8   ar
    17     8    11    1
    18    11    12   ar
    19    12    13   ar
    20    13    14   ar
    21    14    15   ar
    22     8     9   ar
    23     9    10   ar
    24    25    26    1
    25    26    27    1
    26    27    28    1
    27    23    18   am
    28    10     5   ar
    29    28    21    1
    30    15    11   ar
    31     3     4    1
@<TRIPOS>MOLECULE
*****
 28 31 0 0 0
SMALL
GASTEIGER

@<TRIPOS>ATOM
      1 C          60.0137   92.8201   -0.2188 C.2     1  UNL1        0.2463
      2 O          59.0625   93.0702    0.9138 O.2     1  UNL1       -0.2729
      3 N          59.6209   93.1787   -1.6213 N.am    1  UNL1       -0.2825
      4 H          60.2452   93.0146   -2.3646 H       1  UNL1        0.1549
      5 C          58.2768   93.7875   -1.8913 C.ar    1  UNL1        0.0503
      6 C          57.9398   95.1387   -1.3338 C.ar    1  UNL1        0.0147
      7 C          56.5957   95.7474   -1.6038 C.ar    1  UNL1        0.0033
      8 C          55.5886   95.0049   -2.4312 C.ar    1  UNL1        0.0239
      9 C          55.9257   93.6538   -2.9887 C.ar    1  UNL1        0.0033
     10 C          57.2697   93.0451   -2.7187 C.ar    1  UNL1        0.0147
     11 C          54.2445   95.6137   -2.7012 C.ar    1  UNL1        0.1108
     12 N          53.6742   95.9278   -4.0526 N.ar    1  UNL1       -0.2368
     13 C          52.3120   96.5234   -3.8538 C.ar    1  UNL1        0.1064
     14 C          52.0403   96.5774   -2.3796 C.ar    1  UNL1        0.0575
     15 S          53.2347   96.0152   -1.6673 S.2     1  UNL1       -0.0659
     16 C          61.3578   92.2114    0.0512 C.3     1  UNL1        0.1774
     17 C          64.6243   95.4571   -3.6745 C.3     1  UNL1        0.1235
     18 N          64.3226   95.0052   -2.2763 N.am    1  UNL1       -0.2203
     19 C          65.0510   95.4302   -1.0358 C.2     1  UNL1        0.2524
     20 O          66.2091   96.3817   -0.9757 O.2     1  UNL1       -0.2698
     21 C          64.4182   94.7367    0.1340 C.2     1  UNL1        0.0496
     22 C          63.2985   93.8831   -0.3834 C.2     1  UNL1        0.1032
     23 C          63.2394   94.0491   -1.8731 C.2     1  UNL1        0.2683
     24 O          62.2678   93.3768   -2.7973 O.2     1  UNL1       -0.2681
     25 N          62.4775   93.0650    0.5687 N.pl3   1  UNL1       -0.2964
     26 C          62.7760   93.1005    2.0382 C.3     1  UNL1        0.0917
     27 C          63.8956   93.9541    2.5556 C.3     1  UNL1        0.0263
     28 C          64.7167   94.7722    1.6035 C.3     1  UNL1        0.0342
@<TRIPOS>BOND
     1    17    18    1
     2    18    19   am
     3    19    20    2
     4    19    21    1
     5    21    22    2
     6    22    23    1
     7    23    24    2
     8    22    25    1
     9    25    16    1
    10    16     1    1
    11     1     2    2
    12     1     3   am
    13     3     5    1
    14     5     6   ar
    15     6     7   ar
    16     7     8   ar
    17     8    11    1
    18    11    12   ar
    19    12    13   ar
    20    13    14   ar
    21    14    15   ar
    22     8     9   ar
    23     9    10   ar
    24    25    26    1
    25    26    27    1
    26    27    28    1
    27    23    18   am
    28    10     5   ar
    29    28    21    1
    30    15    11   ar
    31     3     4    1
@<TRIPOS>MOLECULE
*****
 28 31 0 0 0
SMALL
GASTEIGER

@<TRIPOS>ATOM
      1 C          60.4258   93.4989    2.2180 C.2     1  UNL1        0.2463
      2 O          61.6729   92.6782    2.3638 O.2     1  UNL1       -0.2729
      3 N          59.2468   93.2362    3.1072 N.am    1  UNL1       -0.2825
      4 H          58.4283   93.7748    3.0115 H       1  UNL1        0.1549
      5 C          59.3148   92.1527    4.1423 C.ar    1  UNL1        0.0503
      6 C          60.6409   91.5699    4.5320 C.ar    1  UNL1        0.0147
      7 C          60.7089   90.4864    5.5671 C.ar    1  UNL1        0.0033
      8 C          59.4508   89.9857    6.2125 C.ar    1  UNL1        0.0239
      9 C          58.1247   90.5685    5.8229 C.ar    1  UNL1        0.0033
     10 C          58.0567   91.6520    4.7878 C.ar    1  UNL1        0.0147
     11 C          59.5188   88.9023    7.2477 C.ar    1  UNL1        0.1108
     12 N          58.9969   87.5042    7.0962 N.ar    1  UNL1       -0.2368
     13 C          59.2762   86.7645    8.3709 C.ar    1  UNL1        0.1064
     14 C          59.9707   87.7054    9.3102 C.ar    1  UNL1        0.0575
     15 S          60.1206   89.0266    8.6160 S.2     1  UNL1       -0.0659
     16 C          60.3578   94.5824    1.1829 C.3     1  UNL1        0.1774
     17 C          65.7240   96.3150   -0.6301 C.3     1  UNL1        0.1235
     18 N          64.4140   95.6451   -0.9220 N.am    1  UNL1       -0.2203
     19 C          64.0104   95.0296   -2.2291 C.2     1  UNL1        0.2524
     20 O          64.8459   94.9759   -3.4736 O.2     1  UNL1       -0.2698
     21 C          62.6245   94.4772   -2.0730 C.2     1  UNL1        0.0496
     22 C          62.1716   94.7513   -0.6696 C.2     1  UNL1        0.1032
     23 C          63.2776   95.4731    0.0418 C.2     1  UNL1        0.2683
     24 O          63.2516   95.9408    1.4668 O.2     1  UNL1       -0.2681
     25 N          60.8107   94.3083   -0.2207 N.pl3   1  UNL1       -0.2964
     26 C          59.9027   93.5911   -1.1752 C.3     1  UNL1        0.0917
     27 C          60.3556   93.3170   -2.5786 C.3     1  UNL1        0.0263
     28 C          61.7165   93.7601   -3.0276 C.3     1  UNL1        0.0342
@<TRIPOS>BOND
     1    17    18    1
     2    18    19   am
     3    19    20    2
     4    19    21    1
     5    21    22    2
     6    22    23    1
     7    23    24    2
     8    22    25    1
     9    25    16    1
    10    16     1    1
    11     1     2    2
    12     1     3   am
    13     3     5    1
    14     5     6   ar
    15     6     7   ar
    16     7     8   ar
    17     8    11    1
    18    11    12   ar
    19    12    13   ar
    20    13    14   ar
    21    14    15   ar
    22     8     9   ar
    23     9    10   ar
    24    25    26    1
    25    26    27    1
    26    27    28    1
    27    23    18   am
    28    10     5   ar
    29    28    21    1
    30    15    11   ar
    31     3     4    1
@<TRIPOS>MOLECULE
*****
 28 31 0 0 0
SMALL
GASTEIGER

@<TRIPOS>ATOM
      1 C          71.9450   76.0164   14.1497 C.2     1  UNL1        0.2463
      2 O          70.6282   76.1280   13.4398 O.2     1  UNL1       -0.2729
      3 N          73.0677   76.9469   13.7982 N.am    1  UNL1       -0.2825
      4 H          73.9319   76.8737   14.2641 H       1  UNL1        0.1549
      5 C          72.8738   77.9890   12.7369 C.ar    1  UNL1        0.0503
      6 C          72.4183   79.3676   13.1137 C.ar    1  UNL1        0.0147
      7 C          72.2244   80.4097   12.0524 C.ar    1  UNL1        0.0033
      8 C          72.4860   80.0731   10.6142 C.ar    1  UNL1        0.0239
      9 C          72.9415   78.6946   10.2374 C.ar    1  UNL1        0.0033
     10 C          73.1354   77.6525   11.2987 C.ar    1  UNL1        0.0147
     11 C          72.2921   81.1152    9.5528 C.ar    1  UNL1        0.1108
     12 N          72.1007   82.5848    9.7846 N.ar    1  UNL1       -0.2368
     13 C          71.9459   83.2485    8.4484 C.ar    1  UNL1        0.1064
     14 C          72.0416   82.1892    7.3907 C.ar    1  UNL1        0.0575
     15 S          72.2556   80.8707    8.0733 S.2     1  UNL1       -0.0659
     16 C          72.1389   74.9743   15.2111 C.3     1  UNL1        0.1774
     17 C          70.2318   70.4305   18.4977 C.3     1  UNL1        0.1235
     18 N          70.9889   70.9367   17.3057 N.am    1  UNL1       -0.2203
     19 C          71.7052   70.0933   16.2929 C.2     1  UNL1        0.2524
     20 O          71.7901   68.5957   16.2942 O.2     1  UNL1       -0.2698
     21 C          72.3215   71.0105   15.2786 C.2     1  UNL1        0.0496
     22 C          71.9862   72.4206   15.6644 C.2     1  UNL1        0.1032
     23 C          71.1626   72.3751   16.9173 C.2     1  UNL1        0.2683
     24 O          70.6098   73.5598   17.6526 O.2     1  UNL1       -0.2681
     25 N          72.4742   73.5641   14.8251 N.pl3   1  UNL1       -0.2964
     26 C          73.2975   73.2974   13.6000 C.3     1  UNL1        0.0917
     27 C          73.6327   71.8872   13.2141 C.3     1  UNL1        0.0263
     28 C          73.1448   70.7437   14.0534 C.3     1  UNL1        0.0342
@<TRIPOS>BOND
     1    17    18    1
     2    18    19   am
     3    19    20    2
     4    19    21    1
     5    21    22    2
     6    22    23    1
     7    23    24    2
     8    22    25    1
     9    25    16    1
    10    16     1    1
    11     1     2    2
    12     1     3   am
    13     3     5    1
    14     5     6   ar
    15     6     7   ar
    16     7     8   ar
    17     8    11    1
    18    11    12   ar
    19    12    13   ar
    20    13    14   ar
    21    14    15   ar
    22     8     9   ar
    23     9    10   ar
    24    25    26    1
    25    26    27    1
    26    27    28    1
    27    23    18   am
    28    10     5   ar
    29    28    21    1
    30    15    11   ar
    31     3     4    1
@<TRIPOS>MOLECULE
*****
 28 31 0 0 0
SMALL
GASTEIGER

@<TRIPOS>ATOM
      1 C          59.8943   93.2705    1.6211 C.2     1  UNL1        0.2463
      2 O          60.1217   91.8654    1.1475 O.2     1  UNL1       -0.2729
      3 N          59.6336   93.5393    3.0736 N.am    1  UNL1       -0.2825
      4 H          59.4844   94.4615    3.3845 H       1  UNL1        0.1549
      5 C          59.6004   92.4032    4.0525 C.ar    1  UNL1        0.0503
      6 C          58.2950   91.9619    4.6452 C.ar    1  UNL1        0.0147
      7 C          58.2617   90.8258    5.6241 C.ar    1  UNL1        0.0033
      8 C          59.5339   90.1311    6.0103 C.ar    1  UNL1        0.0239
      9 C          60.8392   90.5724    5.4175 C.ar    1  UNL1        0.0033
     10 C          60.8724   91.7085    4.4386 C.ar    1  UNL1        0.0147
     11 C          59.5006   88.9950    6.9891 C.ar    1  UNL1        0.1108
     12 N          58.9498   87.6240    6.7304 N.ar    1  UNL1       -0.2368
     13 C          59.1211   86.8121    7.9800 C.ar    1  UNL1        0.1064
     14 C          59.7778   87.6813    9.0111 C.ar    1  UNL1        0.0575
     15 S          60.0124   89.0304    8.3987 S.2     1  UNL1       -0.0659
     16 C          59.9275   94.4065    0.6423 C.3     1  UNL1        0.1774
     17 C          56.2441   94.4991   -3.9955 C.3     1  UNL1        0.1235
     18 N          57.6323   94.3417   -3.4492 N.am    1  UNL1       -0.2203
     19 C          58.8700   94.0698   -4.2517 C.2     1  UNL1        0.2524
     20 O          58.9371   93.9075   -5.7414 O.2     1  UNL1       -0.2698
     21 C          60.0291   93.9886   -3.3030 C.2     1  UNL1        0.0496
     22 C          59.5076   94.2103   -1.9142 C.2     1  UNL1        0.1032
     23 C          58.0263   94.4285   -2.0045 C.2     1  UNL1        0.2683
     24 O          57.1015   94.6880   -0.8524 O.2     1  UNL1       -0.2681
     25 N          60.4490   94.1848   -0.7466 N.pl3   1  UNL1       -0.2964
     26 C          61.9119   93.9376   -0.9679 C.3     1  UNL1        0.0917
     27 C          62.4333   93.7159   -2.3568 C.3     1  UNL1        0.0263
     28 C          61.4919   93.7414   -3.5243 C.3     1  UNL1        0.0342
@<TRIPOS>BOND
     1    17    18    1
     2    18    19   am
     3    19    20    2
     4    19    21    1
     5    21    22    2
     6    22    23    1
     7    23    24    2
     8    22    25    1
     9    25    16    1
    10    16     1    1
    11     1     2    2
    12     1     3   am
    13     3     5    1
    14     5     6   ar
    15     6     7   ar
    16     7     8   ar
    17     8    11    1
    18    11    12   ar
    19    12    13   ar
    20    13    14   ar
    21    14    15   ar
    22     8     9   ar
    23     9    10   ar
    24    25    26    1
    25    26    27    1
    26    27    28    1
    27    23    18   am
    28    10     5   ar
    29    28    21    1
    30    15    11   ar
    31     3     4    1
@<TRIPOS>MOLECULE
*****
 28 31 0 0 0
SMALL
GASTEIGER

@<TRIPOS>ATOM
      1 C          60.6702   93.4552    2.2023 C.2     1  UNL1        0.2463
      2 O          61.9232   92.6789    2.4806 O.2     1  UNL1       -0.2729
      3 N          59.4253   93.1779    2.9916 N.am    1  UNL1       -0.2825
      4 H          58.6029   93.6875    2.8090 H       1  UNL1        0.1549
      5 C          59.4332   92.1243    4.0593 C.ar    1  UNL1        0.0503
      6 C          58.1501   91.7179    4.7215 C.ar    1  UNL1        0.0147
      7 C          58.1580   90.6643    5.7891 C.ar    1  UNL1        0.0033
      8 C          59.4491   90.0171    6.1945 C.ar    1  UNL1        0.0239
      9 C          60.7322   90.4235    5.5324 C.ar    1  UNL1        0.0033
     10 C          60.7242   91.4772    4.4647 C.ar    1  UNL1        0.0147
     11 C          59.4571   88.9635    7.2622 C.ar    1  UNL1        0.1108
     12 N          58.7659   87.6339    7.1940 N.ar    1  UNL1       -0.2368
     13 C          59.0393   86.9032    8.4751 C.ar    1  UNL1        0.1064
     14 C          59.8993   87.7811    9.3351 C.ar    1  UNL1        0.0575
     15 S          60.1575   89.0544    8.5854 S.2     1  UNL1       -0.0659
     16 C          60.6623   94.5088    1.1347 C.3     1  UNL1        0.1774
     17 C          62.8671   93.7507   -4.3104 C.3     1  UNL1        0.1235
     18 N          62.9715   94.3673   -2.9470 N.am    1  UNL1       -0.2203
     19 C          64.0687   95.2723   -2.4703 C.2     1  UNL1        0.2524
     20 O          65.2540   95.7196   -3.2734 O.2     1  UNL1       -0.2698
     21 C          63.7725   95.6515   -1.0496 C.2     1  UNL1        0.0496
     22 C          62.4922   94.9809   -0.6482 C.2     1  UNL1        0.1032
     23 C          61.9972   94.1872   -1.8208 C.2     1  UNL1        0.2683
     24 O          60.7473   93.3588   -1.8604 O.2     1  UNL1       -0.2681
     25 N          61.9426   95.1795    0.7333 N.pl3   1  UNL1       -0.2964
     26 C          62.6732   96.0488    1.7133 C.3     1  UNL1        0.0917
     27 C          63.9534   96.7194    1.3119 C.3     1  UNL1        0.0263
     28 C          64.5031   96.5208   -0.0695 C.3     1  UNL1        0.0342
@<TRIPOS>BOND
     1    17    18    1
     2    18    19   am
     3    19    20    2
     4    19    21    1
     5    21    22    2
     6    22    23    1
     7    23    24    2
     8    22    25    1
     9    25    16    1
    10    16     1    1
    11     1     2    2
    12     1     3   am
    13     3     5    1
    14     5     6   ar
    15     6     7   ar
    16     7     8   ar
    17     8    11    1
    18    11    12   ar
    19    12    13   ar
    20    13    14   ar
    21    14    15   ar
    22     8     9   ar
    23     9    10   ar
    24    25    26    1
    25    26    27    1
    26    27    28    1
    27    23    18   am
    28    10     5   ar
    29    28    21    1
    30    15    11   ar
    31     3     4    1
@<TRIPOS>MOLECULE
*****
 28 31 0 0 0
SMALL
GASTEIGER

@<TRIPOS>ATOM
      1 C          59.3746   89.6174    6.3844 C.2     1  UNL1        0.2463
      2 O          58.0995   90.1029    5.7609 O.2     1  UNL1       -0.2729
      3 N          60.6939   90.1384    5.8964 N.am    1  UNL1       -0.2825
      4 H          61.5307   89.8198    6.3056 H       1  UNL1        0.1549
      5 C          60.7381   91.1447    4.7850 C.ar    1  UNL1        0.0503
      6 C          59.5502   92.0212    4.5191 C.ar    1  UNL1        0.0147
      7 C          59.5945   93.0276    3.4077 C.ar    1  UNL1        0.0033
      8 C          60.8267   93.1575    2.5622 C.ar    1  UNL1        0.0239
      9 C          62.0146   92.2810    2.8281 C.ar    1  UNL1        0.0033
     10 C          61.9703   91.2746    3.9395 C.ar    1  UNL1        0.0147
     11 C          60.8710   94.1638    1.4507 C.ar    1  UNL1        0.1108
     12 N          61.4349   93.9384    0.0792 N.ar    1  UNL1       -0.2368
     13 C          61.2715   95.2076   -0.7035 C.ar    1  UNL1        0.1064
     14 C          60.6067   96.2174    0.1843 C.ar    1  UNL1        0.0575
     15 S          60.3592   95.5723    1.5157 S.2     1  UNL1       -0.0659
     16 C          59.3303   88.6111    7.4958 C.3     1  UNL1        0.1774
     17 C          62.8769   84.6401   10.0918 C.3     1  UNL1        0.1235
     18 N          62.2168   85.9871   10.1027 N.am    1  UNL1       -0.2203
     19 C          62.3543   87.0277   11.1743 C.2     1  UNL1        0.2524
     20 O          63.1760   86.9040   12.4231 O.2     1  UNL1       -0.2698
     21 C          61.5258   88.2136   10.7779 C.2     1  UNL1        0.0496
     22 C          60.8763   87.9061    9.4613 C.2     1  UNL1        0.1032
     23 C          61.3033   86.5299    9.0440 C.2     1  UNL1        0.2683
     24 O          60.8895   85.8212    7.7884 O.2     1  UNL1       -0.2681
     25 N          59.9799   88.9187    8.8125 N.pl3   1  UNL1       -0.2964
     26 C          59.7330   90.2390    9.4802 C.3     1  UNL1        0.0917
     27 C          60.3826   90.5466   10.7968 C.3     1  UNL1        0.0263
     28 C          61.2790   89.5339   11.4457 C.3     1  UNL1        0.0342
@<TRIPOS>BOND
     1    17    18    1
     2    18    19   am
     3    19    20    2
     4    19    21    1
     5    21    22    2
     6    22    23    1
     7    23    24    2
     8    22    25    1
     9    25    16    1
    10    16     1    1
    11     1     2    2
    12     1     3   am
    13     3     5    1
    14     5     6   ar
    15     6     7   ar
    16     7     8   ar
    17     8    11    1
    18    11    12   ar
    19    12    13   ar
    20    13    14   ar
    21    14    15   ar
    22     8     9   ar
    23     9    10   ar
    24    25    26    1
    25    26    27    1
    26    27    28    1
    27    23    18   am
    28    10     5   ar
    29    28    21    1
    30    15    11   ar
    31     3     4    1
