@<TRIPOS>MOLECULE
*****
 31 34 0 0 0
SMALL
GASTEIGER

@<TRIPOS>ATOM
      1 C          61.2168   88.8588   10.2525 C.ar    1  UNL1        0.1389
      2 C          62.1226   89.9019   10.8369 C.ar    1  UNL1        0.0553
      3 C          63.1642   89.5120   11.8434 C.ar    1  UNL1        0.1048
      4 N          63.3000   88.0790   12.2656 N.ar    1  UNL1       -0.2083
      5 C          62.3941   87.0359   11.6812 C.ar    1  UNL1        0.2539
      6 N          61.3526   87.4258   10.6747 N.ar    1  UNL1       -0.1948
      7 N          62.5299   85.6030   12.1034 N.ar    1  UNL1       -0.2008
      8 N          62.3190   85.0682   13.4888 N.ar    1  UNL1       -0.1673
      9 C          62.5592   83.5880   13.4559 C.ar    1  UNL1        0.0806
     10 C          62.4579   82.6521   14.6238 C.3     1  UNL1        0.0540
     11 C          62.9186   83.2078   12.0501 C.ar    1  UNL1        0.0313
     12 C          62.9005   84.4532   11.2142 C.ar    1  UNL1        0.0651
     13 C          63.2003   84.5345    9.7467 C.3     1  UNL1        0.0523
     14 C          64.0700   90.5550   12.4278 C.ar    1  UNL1        0.1005
     15 C          64.3677   90.5514   13.8980 C.ar    1  UNL1        0.0208
     16 C          65.2736   91.5945   14.4824 C.ar    1  UNL1        0.0045
     17 C          65.8817   92.6411   13.5965 C.ar    1  UNL1        0.0343
     18 C          65.5841   92.6447   12.1264 C.ar    1  UNL1        0.1318
     19 N          64.6783   91.6017   11.5420 N.ar    1  UNL1       -0.2292
     20 N          66.1923   93.6913   11.2406 N.pl3   1  UNL1       -0.2906
     21 C          65.9305   95.1136   11.6394 C.3     1  UNL1        0.0948
     22 C          66.3936   96.3731   10.9692 C.3     1  UNL1        0.0535
     23 C          67.2329   96.5216    9.7350 C.3     1  UNL1        0.1440
     24 O          67.8164   95.4472    8.8659 O.3     1  UNL1       -0.3519
     25 C          67.7047   93.9590    9.0165 C.3     1  UNL1        0.1635
     26 C          66.9818   93.1776   10.0734 C.3     1  UNL1        0.1241
     27 C          58.8404   88.7379    7.0764 C.3     1  UNL1        0.0950
     28 C          59.8820   88.3479    8.0829 C.2     1  UNL1        0.2277
     29 O          60.6303   87.0574    7.9264 O.2     1  UNL1       -0.2747
     30 N          60.1752   89.2487    9.2460 N.am    1  UNL1       -0.2692
     31 H          59.6841   90.0957    9.3487 H       1  UNL1        0.1563
@<TRIPOS>BOND
     1    27    28    1
     2    28    29    2
     3    28    30   am
     4    30     1    1
     5     1     2   ar
     6     2     3   ar
     7     3    14    1
     8    14    15   ar
     9    15    16   ar
    10    16    17   ar
    11    17    18   ar
    12    18    20    1
    13    20    21    1
    14    21    22    1
    15    22    23    1
    16    23    24    1
    17    24    25    1
    18    25    26    1
    19    18    19   ar
    20     3     4   ar
    21     4     5   ar
    22     5     7    1
    23     7     8   ar
    24     8     9   ar
    25     9    10    1
    26     9    11   ar
    27    11    12   ar
    28    12    13    1
    29     5     6   ar
    30     6     1   ar
    31    19    14   ar
    32    12     7   ar
    33    26    20    1
    34    30    31    1
@<TRIPOS>MOLECULE
*****
 31 34 0 0 0
SMALL
GASTEIGER

@<TRIPOS>ATOM
      1 C          61.3976   88.1887   10.9808 C.ar    1  UNL1        0.1389
      2 C          62.2400   89.3221   11.4868 C.ar    1  UNL1        0.0553
      3 C          63.3385   89.0577   12.4735 C.ar    1  UNL1        0.1048
      4 N          63.5946   87.6601   12.9541 N.ar    1  UNL1       -0.2083
      5 C          62.7522   86.5268   12.4480 C.ar    1  UNL1        0.2539
      6 N          61.6537   86.7911   11.4614 N.ar    1  UNL1       -0.1948
      7 N          63.0084   85.1291   12.9287 N.ar    1  UNL1       -0.2008
      8 N          62.6532   83.8671   12.2000 N.ar    1  UNL1       -0.1673
      9 C          63.0900   82.7062   13.0434 C.ar    1  UNL1        0.0806
     10 C          62.9298   81.2555   12.6976 C.3     1  UNL1        0.0540
     11 C          63.7153   83.2507   14.2935 C.ar    1  UNL1        0.0313
     12 C          63.6648   84.7482   14.2225 C.ar    1  UNL1        0.0651
     13 C          64.1803   85.6980   15.2629 C.3     1  UNL1        0.0523
     14 C          64.1808   90.1910   12.9795 C.ar    1  UNL1        0.1005
     15 C          64.4228   90.3464   14.4516 C.ar    1  UNL1        0.0208
     16 C          65.2652   91.4798   14.9577 C.ar    1  UNL1        0.0045
     17 C          65.8656   92.4575   13.9915 C.ar    1  UNL1        0.0343
     18 C          65.6236   92.3020   12.5193 C.ar    1  UNL1        0.1318
     19 N          64.7813   91.1688   12.0133 N.ar    1  UNL1       -0.2292
     20 N          66.2241   93.2799   11.5532 N.pl3   1  UNL1       -0.2906
     21 C          67.0186   92.6811   10.4306 C.3     1  UNL1        0.0948
     22 C          67.7360   93.3817    9.3149 C.3     1  UNL1        0.0535
     23 C          67.8358   94.8540    9.0464 C.3     1  UNL1        0.1440
     24 O          67.2431   95.9895    9.8271 O.3     1  UNL1       -0.3519
     25 C          66.4041   95.9330   11.0692 C.3     1  UNL1        0.1635
     26 C          65.9506   94.7270   11.8373 C.3     1  UNL1        0.1241
     27 C          59.1522   87.9548    7.7169 C.3     1  UNL1        0.0950
     28 C          60.2507   87.6903    8.7035 C.2     1  UNL1        0.2277
     29 O          61.3008   86.6633    8.3994 O.2     1  UNL1       -0.2747
     30 N          60.2991   88.4531    9.9942 N.am    1  UNL1       -0.2692
     31 H          59.6099   89.1272   10.1937 H       1  UNL1        0.1563
@<TRIPOS>BOND
     1    27    28    1
     2    28    29    2
     3    28    30   am
     4    30     1    1
     5     1     2   ar
     6     2     3   ar
     7     3    14    1
     8    14    15   ar
     9    15    16   ar
    10    16    17   ar
    11    17    18   ar
    12    18    20    1
    13    20    21    1
    14    21    22    1
    15    22    23    1
    16    23    24    1
    17    24    25    1
    18    25    26    1
    19    18    19   ar
    20     3     4   ar
    21     4     5   ar
    22     5     7    1
    23     7     8   ar
    24     8     9   ar
    25     9    10    1
    26     9    11   ar
    27    11    12   ar
    28    12    13    1
    29     5     6   ar
    30     6     1   ar
    31    19    14   ar
    32    12     7   ar
    33    26    20    1
    34    30    31    1
@<TRIPOS>MOLECULE
*****
 31 34 0 0 0
SMALL
GASTEIGER

@<TRIPOS>ATOM
      1 C          63.8276   87.4276   13.9732 C.ar    1  UNL1        0.1389
      2 C          64.5474   88.7215   14.2140 C.ar    1  UNL1        0.0553
      3 C          64.3404   89.8795   13.2834 C.ar    1  UNL1        0.1048
      4 N          63.4135   89.7438   12.1118 N.ar    1  UNL1       -0.2083
      5 C          62.6936   88.4499   11.8710 C.ar    1  UNL1        0.2539
      6 N          62.9007   87.2919   12.8017 N.ar    1  UNL1       -0.1948
      7 N          61.7667   88.3142   10.6995 N.ar    1  UNL1       -0.2008
      8 N          61.6825   87.1373    9.7735 N.ar    1  UNL1       -0.1673
      9 C          60.6251   87.4274    8.7500 C.ar    1  UNL1        0.0806
     10 C          60.2099   86.5204    7.6297 C.3     1  UNL1        0.0540
     11 C          60.0556   88.7837    9.0435 C.ar    1  UNL1        0.0313
     12 C          60.7612   89.3318   10.2483 C.ar    1  UNL1        0.0651
     13 C          60.5061   90.6638   10.8894 C.3     1  UNL1        0.0523
     14 C          65.0602   91.1732   13.5242 C.ar    1  UNL1        0.1005
     15 C          65.4397   91.5719   14.9195 C.ar    1  UNL1        0.0208
     16 C          66.1596   92.8657   15.1603 C.ar    1  UNL1        0.0045
     17 C          66.4999   93.7608   14.0057 C.ar    1  UNL1        0.0343
     18 C          66.1203   93.3621   12.6103 C.ar    1  UNL1        0.1318
     19 N          65.4005   92.0683   12.3695 N.ar    1  UNL1       -0.2292
     20 N          66.4607   94.2572   11.4558 N.pl3   1  UNL1       -0.2906
     21 C          66.1814   95.7168   11.6597 C.3     1  UNL1        0.0948
     22 C          66.4077   96.8542   10.7081 C.3     1  UNL1        0.0535
     23 C          66.9692   96.8127    9.3179 C.3     1  UNL1        0.1440
     24 O          67.4431   95.6238    8.5356 O.3     1  UNL1       -0.3519
     25 C          67.4725   94.1826    8.9506 C.3     1  UNL1        0.1635
     26 C          67.0352   93.5745   10.2502 C.3     1  UNL1        0.1241
     27 C          64.2498   83.7108   15.2985 C.3     1  UNL1        0.0950
     28 C          64.0427   84.8688   14.3677 C.2     1  UNL1        0.2277
     29 O          63.8438   84.6259   12.9010 O.2     1  UNL1       -0.2747
     30 N          64.0346   86.2696   14.9039 N.am    1  UNL1       -0.2692
     31 H          64.1652   86.4290   15.8666 H       1  UNL1        0.1563
@<TRIPOS>BOND
     1    27    28    1
     2    28    29    2
     3    28    30   am
     4    30     1    1
     5     1     2   ar
     6     2     3   ar
     7     3    14    1
     8    14    15   ar
     9    15    16   ar
    10    16    17   ar
    11    17    18   ar
    12    18    20    1
    13    20    21    1
    14    21    22    1
    15    22    23    1
    16    23    24    1
    17    24    25    1
    18    25    26    1
    19    18    19   ar
    20     3     4   ar
    21     4     5   ar
    22     5     7    1
    23     7     8   ar
    24     8     9   ar
    25     9    10    1
    26     9    11   ar
    27    11    12   ar
    28    12    13    1
    29     5     6   ar
    30     6     1   ar
    31    19    14   ar
    32    12     7   ar
    33    26    20    1
    34    30    31    1
@<TRIPOS>MOLECULE
*****
 31 34 0 0 0
SMALL
GASTEIGER

@<TRIPOS>ATOM
      1 C          62.0197   89.9636   10.6532 C.ar    1  UNL1        0.1389
      2 C          62.2496   88.7801   11.5457 C.ar    1  UNL1        0.0553
      3 C          63.3699   88.7991   12.5430 C.ar    1  UNL1        0.1048
      4 N          64.2603   90.0017   12.6479 N.ar    1  UNL1       -0.2083
      5 C          64.0304   91.1853   11.7554 C.ar    1  UNL1        0.2539
      6 N          62.9102   91.1662   10.7581 N.ar    1  UNL1       -0.1948
      7 N          64.9209   92.3878   11.8603 N.ar    1  UNL1       -0.2008
      8 N          65.1516   93.4104   10.7874 N.ar    1  UNL1       -0.1673
      9 C          66.1102   94.4334   11.3206 C.ar    1  UNL1        0.0806
     10 C          66.6180   95.6356   10.5812 C.3     1  UNL1        0.0540
     11 C          66.4720   94.0432   12.7231 C.ar    1  UNL1        0.0313
     12 C          65.7369   92.7789   13.0566 C.ar    1  UNL1        0.0651
     13 C          65.8057   92.0362   14.3580 C.3     1  UNL1        0.0523
     14 C          63.5998   87.6157   13.4354 C.ar    1  UNL1        0.1005
     15 C          64.1227   87.8160   14.8269 C.ar    1  UNL1        0.0208
     16 C          64.3526   86.6325   15.7194 C.ar    1  UNL1        0.0045
     17 C          64.0595   85.2486   15.2203 C.ar    1  UNL1        0.0343
     18 C          63.5366   85.0483   13.8287 C.ar    1  UNL1        0.1318
     19 N          63.3067   86.2318   12.9363 N.ar    1  UNL1       -0.2292
     20 N          63.2435   83.6644   13.3297 N.pl3   1  UNL1       -0.2906
     21 C          62.6208   82.7317   14.3259 C.3     1  UNL1        0.0948
     22 C          62.2127   81.3004   14.1389 C.3     1  UNL1        0.0535
     23 C          62.3265   80.4485   12.9097 C.3     1  UNL1        0.1440
     24 O          62.8764   80.8172   11.5637 O.3     1  UNL1       -0.3519
     25 C          63.4485   82.1291   11.1147 C.3     1  UNL1        0.1635
     26 C          63.6118   83.3962   11.9007 C.3     1  UNL1        0.1241
     27 C          59.4983   88.6809    7.8698 C.3     1  UNL1        0.0950
     28 C          60.6186   88.6999    8.8672 C.2     1  UNL1        0.2277
     29 O          61.4580   87.4744    9.0758 O.2     1  UNL1       -0.2747
     30 N          60.8995   89.9446    9.6559 N.am    1  UNL1       -0.2692
     31 H          60.3485   90.7489    9.5189 H       1  UNL1        0.1563
@<TRIPOS>BOND
     1    27    28    1
     2    28    29    2
     3    28    30   am
     4    30     1    1
     5     1     2   ar
     6     2     3   ar
     7     3    14    1
     8    14    15   ar
     9    15    16   ar
    10    16    17   ar
    11    17    18   ar
    12    18    20    1
    13    20    21    1
    14    21    22    1
    15    22    23    1
    16    23    24    1
    17    24    25    1
    18    25    26    1
    19    18    19   ar
    20     3     4   ar
    21     4     5   ar
    22     5     7    1
    23     7     8   ar
    24     8     9   ar
    25     9    10    1
    26     9    11   ar
    27    11    12   ar
    28    12    13    1
    29     5     6   ar
    30     6     1   ar
    31    19    14   ar
    32    12     7   ar
    33    26    20    1
    34    30    31    1
@<TRIPOS>MOLECULE
*****
 31 34 0 0 0
SMALL
GASTEIGER

@<TRIPOS>ATOM
      1 C          63.8464   87.4133   13.9508 C.ar    1  UNL1        0.1389
      2 C          64.5561   88.7112   14.1996 C.ar    1  UNL1        0.0553
      3 C          64.3680   89.8617   13.2557 C.ar    1  UNL1        0.1048
      4 N          63.4702   89.7145   12.0631 N.ar    1  UNL1       -0.2083
      5 C          62.7605   88.4166   11.8144 C.ar    1  UNL1        0.2539
      6 N          62.9486   87.2661   12.7582 N.ar    1  UNL1       -0.1948
      7 N          61.8627   88.2694   10.6217 N.ar    1  UNL1       -0.2008
      8 N          61.3205   89.3883    9.7828 N.ar    1  UNL1       -0.1673
      9 C          60.4722   88.7878    8.7013 C.ar    1  UNL1        0.0806
     10 C          59.7353   89.5445    7.6363 C.3     1  UNL1        0.0540
     11 C          60.4902   87.2976    8.8718 C.ar    1  UNL1        0.0313
     12 C          61.3496   86.9772   10.0587 C.ar    1  UNL1        0.0651
     13 C          61.6441   85.6054   10.5894 C.3     1  UNL1        0.0523
     14 C          65.0777   91.1596   13.5045 C.ar    1  UNL1        0.1005
     15 C          65.4418   91.5592   14.9036 C.ar    1  UNL1        0.0208
     16 C          66.1516   92.8571   15.1524 C.ar    1  UNL1        0.0045
     17 C          66.4971   93.7553   14.0018 C.ar    1  UNL1        0.0343
     18 C          66.1330   93.3558   12.6026 C.ar    1  UNL1        0.1318
     19 N          65.4233   92.0579   12.3539 N.ar    1  UNL1       -0.2292
     20 N          66.4786   94.2541   11.4521 N.pl3   1  UNL1       -0.2906
     21 C          67.0800   93.5775   10.2560 C.3     1  UNL1        0.0948
     22 C          67.5285   94.1899    8.9622 C.3     1  UNL1        0.0535
     23 C          67.4863   95.6300    8.5451 C.3     1  UNL1        0.1440
     24 O          66.9853   96.8136    9.3185 O.3     1  UNL1       -0.3519
     25 C          66.4027   96.8492   10.7003 C.3     1  UNL1        0.1635
     26 C          66.1772   95.7100   11.6498 C.3     1  UNL1        0.1241
     27 C          64.2548   83.7080   15.3122 C.3     1  UNL1        0.0950
     28 C          64.0667   84.8585   14.3683 C.2     1  UNL1        0.2277
     29 O          63.9109   84.6048   12.8981 O.2     1  UNL1       -0.2747
     30 N          64.0344   86.2627   14.8947 N.am    1  UNL1       -0.2692
     31 H          64.1367   86.4292   15.8596 H       1  UNL1        0.1563
@<TRIPOS>BOND
     1    27    28    1
     2    28    29    2
     3    28    30   am
     4    30     1    1
     5     1     2   ar
     6     2     3   ar
     7     3    14    1
     8    14    15   ar
     9    15    16   ar
    10    16    17   ar
    11    17    18   ar
    12    18    20    1
    13    20    21    1
    14    21    22    1
    15    22    23    1
    16    23    24    1
    17    24    25    1
    18    25    26    1
    19    18    19   ar
    20     3     4   ar
    21     4     5   ar
    22     5     7    1
    23     7     8   ar
    24     8     9   ar
    25     9    10    1
    26     9    11   ar
    27    11    12   ar
    28    12    13    1
    29     5     6   ar
    30     6     1   ar
    31    19    14   ar
    32    12     7   ar
    33    26    20    1
    34    30    31    1
@<TRIPOS>MOLECULE
*****
 31 34 0 0 0
SMALL
GASTEIGER

@<TRIPOS>ATOM
      1 C          62.8142   84.9784    8.6490 C.ar    1  UNL1        0.1389
      2 C          62.5207   86.3881    9.0694 C.ar    1  UNL1        0.0553
      3 C          62.3786   86.7225   10.5247 C.ar    1  UNL1        0.1048
      4 N          62.5300   85.6473   11.5597 N.ar    1  UNL1       -0.2083
      5 C          62.8234   84.2376   11.1392 C.ar    1  UNL1        0.2539
      6 N          62.9655   83.9032    9.6839 N.ar    1  UNL1       -0.1948
      7 N          62.9747   83.1625   12.1742 N.ar    1  UNL1       -0.2008
      8 N          62.2885   81.8287   12.1669 N.ar    1  UNL1       -0.1673
      9 C          62.7285   81.0743   13.3864 C.ar    1  UNL1        0.0806
     10 C          62.2877   79.6946   13.7764 C.3     1  UNL1        0.0540
     11 C          63.6868   81.9418   14.1474 C.ar    1  UNL1        0.0313
     12 C          63.8390   83.2323   13.3982 C.ar    1  UNL1        0.0651
     13 C          64.7036   84.3896   13.8022 C.3     1  UNL1        0.0523
     14 C          62.0852   88.1321   10.9452 C.ar    1  UNL1        0.1005
     15 C          60.8042   88.7892   10.5241 C.ar    1  UNL1        0.0208
     16 C          60.5108   90.1989   10.9446 C.ar    1  UNL1        0.0045
     17 C          61.4985   90.9515   11.7861 C.ar    1  UNL1        0.0343
     18 C          62.7794   90.2944   12.2072 C.ar    1  UNL1        0.1318
     19 N          63.0729   88.8848   11.7868 N.ar    1  UNL1       -0.2292
     20 N          63.7670   91.0471   13.0488 N.pl3   1  UNL1       -0.2906
     21 C          64.7213   91.9294   12.2997 C.3     1  UNL1        0.0948
     22 C          65.8140   92.8005   12.8450 C.3     1  UNL1        0.0535
     23 C          66.2222   93.0044   14.2738 C.3     1  UNL1        0.1440
     24 O          65.6387   92.3876   15.5104 O.3     1  UNL1       -0.3519
     25 C          64.5028   91.4145   15.6235 C.3     1  UNL1        0.1635
     26 C          63.6698   90.8180   14.5279 C.3     1  UNL1        0.1241
     27 C          61.8881   84.2860    4.8526 C.3     1  UNL1        0.0950
     28 C          61.7459   84.6204    6.3079 C.2     1  UNL1        0.2277
     29 O          60.3936   84.9314    6.8775 O.2     1  UNL1       -0.2747
     30 N          62.9562   84.6439    7.1937 N.am    1  UNL1       -0.2692
     31 H          63.8438   84.4398    6.8199 H       1  UNL1        0.1563
@<TRIPOS>BOND
     1    27    28    1
     2    28    29    2
     3    28    30   am
     4    30     1    1
     5     1     2   ar
     6     2     3   ar
     7     3    14    1
     8    14    15   ar
     9    15    16   ar
    10    16    17   ar
    11    17    18   ar
    12    18    20    1
    13    20    21    1
    14    21    22    1
    15    22    23    1
    16    23    24    1
    17    24    25    1
    18    25    26    1
    19    18    19   ar
    20     3     4   ar
    21     4     5   ar
    22     5     7    1
    23     7     8   ar
    24     8     9   ar
    25     9    10    1
    26     9    11   ar
    27    11    12   ar
    28    12    13    1
    29     5     6   ar
    30     6     1   ar
    31    19    14   ar
    32    12     7   ar
    33    26    20    1
    34    30    31    1
@<TRIPOS>MOLECULE
*****
 31 34 0 0 0
SMALL
GASTEIGER

@<TRIPOS>ATOM
      1 C          60.8370   87.3734   10.6801 C.ar    1  UNL1        0.1389
      2 C          61.5816   88.6748   10.7258 C.ar    1  UNL1        0.0553
      3 C          62.8282   88.7970   11.5509 C.ar    1  UNL1        0.1048
      4 N          63.3304   87.6179   12.3304 N.ar    1  UNL1       -0.2083
      5 C          62.5858   86.3165   12.2847 C.ar    1  UNL1        0.2539
      6 N          61.3391   86.1942   11.4595 N.ar    1  UNL1       -0.1948
      7 N          63.0880   85.1374   13.0641 N.ar    1  UNL1       -0.2008
      8 N          62.8371   83.6945   12.7399 N.ar    1  UNL1       -0.1673
      9 C          63.5233   82.8596   13.7801 C.ar    1  UNL1        0.0806
     10 C          63.5328   81.3609   13.8423 C.3     1  UNL1        0.0540
     11 C          64.1984   83.7865   14.7472 C.ar    1  UNL1        0.0313
     12 C          63.9293   85.1942   14.3047 C.ar    1  UNL1        0.0651
     13 C          64.4161   86.4401   14.9836 C.3     1  UNL1        0.0523
     14 C          63.5728   90.0983   11.5966 C.ar    1  UNL1        0.1005
     15 C          63.4058   91.0973   10.4902 C.ar    1  UNL1        0.0208
     16 C          64.1504   92.3987   10.5360 C.ar    1  UNL1        0.0045
     17 C          65.0620   92.7010   11.6882 C.ar    1  UNL1        0.0343
     18 C          65.2290   91.7020   12.7946 C.ar    1  UNL1        0.1318
     19 N          64.4845   90.4007   12.7489 N.ar    1  UNL1       -0.2292
     20 N          66.1407   92.0045   13.9468 N.pl3   1  UNL1       -0.2906
     21 C          67.6061   92.0307   13.6275 C.3     1  UNL1        0.0948
     22 C          68.7592   92.2997   14.5485 C.3     1  UNL1        0.0535
     23 C          68.7316   92.6087   16.0160 C.3     1  UNL1        0.1440
     24 O          67.5442   92.7252   16.9251 O.3     1  UNL1       -0.3519
     25 C          66.0911   92.5613   16.5912 C.3     1  UNL1        0.1635
     26 C          65.4665   92.2406   15.2656 C.3     1  UNL1        0.1241
     27 C          58.4197   86.5934    7.6308 C.3     1  UNL1        0.0950
     28 C          59.6665   86.7156    8.4559 C.2     1  UNL1        0.2277
     29 O          60.9892   86.3023    7.8820 O.2     1  UNL1       -0.2747
     30 N          59.5903   87.2511    9.8550 N.am    1  UNL1       -0.2692
     31 H          58.7221   87.5224   10.2316 H       1  UNL1        0.1563
@<TRIPOS>BOND
     1    27    28    1
     2    28    29    2
     3    28    30   am
     4    30     1    1
     5     1     2   ar
     6     2     3   ar
     7     3    14    1
     8    14    15   ar
     9    15    16   ar
    10    16    17   ar
    11    17    18   ar
    12    18    20    1
    13    20    21    1
    14    21    22    1
    15    22    23    1
    16    23    24    1
    17    24    25    1
    18    25    26    1
    19    18    19   ar
    20     3     4   ar
    21     4     5   ar
    22     5     7    1
    23     7     8   ar
    24     8     9   ar
    25     9    10    1
    26     9    11   ar
    27    11    12   ar
    28    12    13    1
    29     5     6   ar
    30     6     1   ar
    31    19    14   ar
    32    12     7   ar
    33    26    20    1
    34    30    31    1
@<TRIPOS>MOLECULE
*****
 31 34 0 0 0
SMALL
GASTEIGER

@<TRIPOS>ATOM
      1 C          63.5430   86.4094   15.2741 C.ar    1  UNL1        0.1389
      2 C          63.4505   87.6078   14.3765 C.ar    1  UNL1        0.0553
      3 C          63.2475   87.4262   12.9015 C.ar    1  UNL1        0.1048
      4 N          63.1370   86.0463   12.3238 N.ar    1  UNL1       -0.2083
      5 C          63.2295   84.8479   13.2214 C.ar    1  UNL1        0.2539
      6 N          63.4325   85.0295   14.6964 N.ar    1  UNL1       -0.1948
      7 N          63.1189   83.4680   12.6437 N.ar    1  UNL1       -0.2008
      8 N          62.7627   82.2219   13.3989 N.ar    1  UNL1       -0.1673
      9 C          62.7688   81.0758   12.4313 C.ar    1  UNL1        0.0806
     10 C          62.4678   79.6434   12.7594 C.3     1  UNL1        0.0540
     11 C          63.1289   81.6135   11.0781 C.ar    1  UNL1        0.0313
     12 C          63.3452   83.0919   11.2094 C.ar    1  UNL1        0.0651
     13 C          63.7218   84.0297   10.1008 C.3     1  UNL1        0.0523
     14 C          63.1550   88.6244   12.0040 C.ar    1  UNL1        0.1005
     15 C          62.2170   88.6142   10.8335 C.ar    1  UNL1        0.0208
     16 C          62.1245   89.8126    9.9360 C.ar    1  UNL1        0.0045
     17 C          62.9701   91.0211   10.2091 C.ar    1  UNL1        0.0343
     18 C          63.9081   91.0313   11.3795 C.ar    1  UNL1        0.1318
     19 N          64.0006   89.8330   12.2770 N.ar    1  UNL1       -0.2292
     20 N          64.7536   92.2399   11.6525 N.pl3   1  UNL1       -0.2906
     21 C          64.8772   93.2166   10.5207 C.3     1  UNL1        0.0948
     22 C          65.6415   94.5067   10.4780 C.3     1  UNL1        0.0535
     23 C          66.4708   95.1385   11.5564 C.3     1  UNL1        0.1440
     24 O          66.7408   94.6364   12.9439 O.3     1  UNL1       -0.3519
     25 C          66.2480   93.3785   13.5956 C.3     1  UNL1        0.1635
     26 C          65.3637   92.3119   13.0208 C.3     1  UNL1        0.1241
     27 C          62.7676   86.7824   19.1482 C.3     1  UNL1        0.0950
     28 C          62.5645   86.6008   17.6731 C.2     1  UNL1        0.2277
     29 O          61.1800   86.4291   17.1222 O.2     1  UNL1       -0.2747
     30 N          63.7460   86.5910   16.7491 N.am    1  UNL1       -0.2692
     31 H          64.6547   86.7037   17.1108 H       1  UNL1        0.1563
@<TRIPOS>BOND
     1    27    28    1
     2    28    29    2
     3    28    30   am
     4    30     1    1
     5     1     2   ar
     6     2     3   ar
     7     3    14    1
     8    14    15   ar
     9    15    16   ar
    10    16    17   ar
    11    17    18   ar
    12    18    20    1
    13    20    21    1
    14    21    22    1
    15    22    23    1
    16    23    24    1
    17    24    25    1
    18    25    26    1
    19    18    19   ar
    20     3     4   ar
    21     4     5   ar
    22     5     7    1
    23     7     8   ar
    24     8     9   ar
    25     9    10    1
    26     9    11   ar
    27    11    12   ar
    28    12    13    1
    29     5     6   ar
    30     6     1   ar
    31    19    14   ar
    32    12     7   ar
    33    26    20    1
    34    30    31    1
