@<TRIPOS>MOLECULE
*****
 27 30 0 0 0
SMALL
GASTEIGER

@<TRIPOS>ATOM
      1 C          63.0125   87.7601   12.4198 C.ar    1  UNL1        0.0814
      2 C          62.1556   88.0758   11.2298 C.ar    1  UNL1        0.0380
      3 C          61.4825   86.9679   10.4753 C.ar    1  UNL1        0.1017
      4 C          61.6661   85.5443   10.9108 C.ar    1  UNL1        0.1004
      5 N          62.5229   85.2286   12.1008 N.ar    1  UNL1       -0.2905
      6 C          62.8862   83.9312   12.7603 C.ar    1  UNL1        0.0567
      7 C          62.4315   82.5672   12.3326 C.3     1  UNL1        0.0517
      8 C          63.7839   84.2373   13.9223 C.ar    1  UNL1        0.0730
      9 C          64.3846   83.2330   14.8609 C.3     1  UNL1        0.0534
     10 N          63.9754   85.7238   13.9811 N.ar    1  UNL1       -0.2299
     11 C          63.1961   86.3365   12.8553 C.ar    1  UNL1        0.1604
     12 N          60.6256   87.2835    9.2852 N.ar    1  UNL1       -0.2266
     13 C          60.2909   88.6552    8.7787 C.ar    1  UNL1        0.1021
     14 C          59.4115   88.5023    7.5732 C.ar    1  UNL1        0.0431
     15 C          59.2027   87.0361    7.3347 C.ar    1  UNL1        0.1221
     16 N          59.9531   86.2829    8.3928 N.ar    1  UNL1       -0.1634
     17 N          63.6857   88.8680   13.1744 N.pl3   1  UNL1       -0.3267
     18 H          64.3926   88.6602   13.8273 H       1  UNL1        0.1472
     19 C          63.2818   90.2925   12.9342 C.3     1  UNL1        0.1137
     20 C          63.2314   91.3326   10.1207 C.3     1  UNL1        0.0307
     21 C          64.2776   91.8164   11.0806 C.ar    1  UNL1       -0.0245
     22 C          65.2986   92.8204   10.6338 C.ar    1  UNL1       -0.0045
     23 C          66.3448   93.3043   11.5937 C.ar    1  UNL1       -0.0007
     24 C          66.3699   92.7842   13.0004 C.ar    1  UNL1       -0.0045
     25 C          65.3490   91.7803   13.4473 C.ar    1  UNL1       -0.0245
     26 C          65.3741   91.2602   14.8540 C.3     1  UNL1        0.0307
     27 C          64.3027   91.2964   12.4874 C.ar    1  UNL1       -0.0105
@<TRIPOS>BOND
     1    20    21    1
     2    21    22   ar
     3    22    23   ar
     4    23    24   ar
     5    24    25   ar
     6    25    26    1
     7    25    27   ar
     8    27    19    1
     9    19    17    1
    10    17     1    1
    11     1     2   ar
    12     2     3   ar
    13     3    12    1
    14    12    13   ar
    15    13    14   ar
    16    14    15   ar
    17    15    16   ar
    18     3     4   ar
    19     4     5   ar
    20     5     6   ar
    21     6     7    1
    22     6     8   ar
    23     8     9    1
    24     8    10   ar
    25    10    11   ar
    26    27    21   ar
    27    11     1   ar
    28    16    12   ar
    29    11     5   ar
    30    17    18    1
@<TRIPOS>MOLECULE
*****
 27 30 0 0 0
SMALL
GASTEIGER

@<TRIPOS>ATOM
      1 C          63.0080   87.7699   12.4208 C.ar    1  UNL1        0.0814
      2 C          62.1494   88.0895   11.2331 C.ar    1  UNL1        0.0380
      3 C          61.4783   86.9838   10.4735 C.ar    1  UNL1        0.1017
      4 C          61.6659   85.5584   10.9016 C.ar    1  UNL1        0.1004
      5 N          62.5245   85.2389   12.0893 N.ar    1  UNL1       -0.2905
      6 C          62.8917   83.9391   12.7418 C.ar    1  UNL1        0.0567
      7 C          62.4401   82.5762   12.3076 C.3     1  UNL1        0.0517
      8 C          63.7896   84.2415   13.9047 C.ar    1  UNL1        0.0730
      9 C          64.3937   83.2340   14.8376 C.3     1  UNL1        0.0534
     10 N          63.9775   85.7282   13.9709 N.ar    1  UNL1       -0.2299
     11 C          63.1956   86.3446   12.8489 C.ar    1  UNL1        0.1604
     12 N          60.6197   87.3033    9.2858 N.ar    1  UNL1       -0.2266
     13 C          60.3137   88.6754    8.7626 C.ar    1  UNL1        0.1021
     14 C          59.4212   88.5269    7.5662 C.ar    1  UNL1        0.0431
     15 C          59.1755   87.0630    7.3500 C.ar    1  UNL1        0.1221
     16 N          59.9162   86.3068    8.4128 N.ar    1  UNL1       -0.1634
     17 N          63.6791   88.8757   13.1804 N.pl3   1  UNL1       -0.3267
     18 H          64.3815   88.6658   13.8375 H       1  UNL1        0.1472
     19 C          63.2799   90.3013   12.9388 C.3     1  UNL1        0.1137
     20 C          65.3743   91.2663   14.8578 C.3     1  UNL1        0.0307
     21 C          65.3514   91.7838   13.4501 C.ar    1  UNL1       -0.0245
     22 C          66.3757   92.7838   13.0018 C.ar    1  UNL1       -0.0045
     23 C          66.3527   93.3012   11.5941 C.ar    1  UNL1       -0.0007
     24 C          65.3055   92.8187   10.6346 C.ar    1  UNL1       -0.0045
     25 C          64.2813   91.8188   11.0828 C.ar    1  UNL1       -0.0245
     26 C          63.2341   91.3363   10.1234 C.3     1  UNL1        0.0307
     27 C          64.3042   91.3013   12.4906 C.ar    1  UNL1       -0.0105
@<TRIPOS>BOND
     1    20    21    1
     2    21    22   ar
     3    22    23   ar
     4    23    24   ar
     5    24    25   ar
     6    25    26    1
     7    25    27   ar
     8    27    19    1
     9    19    17    1
    10    17     1    1
    11     1     2   ar
    12     2     3   ar
    13     3    12    1
    14    12    13   ar
    15    13    14   ar
    16    14    15   ar
    17    15    16   ar
    18     3     4   ar
    19     4     5   ar
    20     5     6   ar
    21     6     7    1
    22     6     8   ar
    23     8     9    1
    24     8    10   ar
    25    10    11   ar
    26    27    21   ar
    27    11     1   ar
    28    16    12   ar
    29    11     5   ar
    30    17    18    1
@<TRIPOS>MOLECULE
*****
 27 30 0 0 0
SMALL
GASTEIGER

@<TRIPOS>ATOM
      1 C          63.1432   86.6925   12.7791 C.ar    1  UNL1        0.0814
      2 C          62.3087   86.3116   11.5923 C.ar    1  UNL1        0.0380
      3 C          61.8919   87.3580   10.6017 C.ar    1  UNL1        0.1017
      4 C          62.3096   88.7853   10.7979 C.ar    1  UNL1        0.1004
      5 N          63.1441   89.1661   11.9847 N.ar    1  UNL1       -0.2905
      6 C          63.7029   90.4823   12.4380 C.ar    1  UNL1        0.0567
      7 C          63.5299   91.8000   11.7426 C.3     1  UNL1        0.0517
      8 C          64.4651   90.2493   13.7088 C.ar    1  UNL1        0.0730
      9 C          65.1881   91.2933   14.5072 C.3     1  UNL1        0.0534
     10 N          64.3773   88.7892   14.0409 N.ar    1  UNL1       -0.2299
     11 C          63.5609   88.1197   12.9753 C.ar    1  UNL1        0.1604
     12 N          61.0573   86.9772    9.4148 N.ar    1  UNL1       -0.2266
     13 C          61.4092   85.9460    8.3839 C.ar    1  UNL1        0.1021
     14 C          60.2938   85.8922    7.3825 C.ar    1  UNL1        0.0431
     15 C          59.2524   86.8902    7.7945 C.ar    1  UNL1        0.1221
     16 N          59.7244   87.5608    9.0505 N.ar    1  UNL1       -0.1634
     17 N          63.5600   85.6461   13.7698 N.pl3   1  UNL1       -0.3267
     18 H          63.3690   85.7710   14.7274 H       1  UNL1        0.1472
     19 C          64.2678   84.4094   13.3013 C.3     1  UNL1        0.1137
     20 C          62.6011   83.4880   15.6193 C.3     1  UNL1        0.0307
     21 C          62.6954   82.6458   14.3816 C.ar    1  UNL1       -0.0245
     22 C          61.9563   81.3428   14.3029 C.ar    1  UNL1       -0.0045
     23 C          62.0506   80.5006   13.0653 C.ar    1  UNL1       -0.0007
     24 C          62.8840   80.9613   11.9063 C.ar    1  UNL1       -0.0045
     25 C          63.6230   82.2642   11.9849 C.ar    1  UNL1       -0.0245
     26 C          64.4564   82.7249   10.8259 C.3     1  UNL1        0.0307
     27 C          63.5288   83.1065   13.2226 C.ar    1  UNL1       -0.0105
@<TRIPOS>BOND
     1    20    21    1
     2    21    22   ar
     3    22    23   ar
     4    23    24   ar
     5    24    25   ar
     6    25    26    1
     7    25    27   ar
     8    27    19    1
     9    19    17    1
    10    17     1    1
    11     1     2   ar
    12     2     3   ar
    13     3    12    1
    14    12    13   ar
    15    13    14   ar
    16    14    15   ar
    17    15    16   ar
    18     3     4   ar
    19     4     5   ar
    20     5     6   ar
    21     6     7    1
    22     6     8   ar
    23     8     9    1
    24     8    10   ar
    25    10    11   ar
    26    27    21   ar
    27    11     1   ar
    28    16    12   ar
    29    11     5   ar
    30    17    18    1
@<TRIPOS>MOLECULE
*****
 27 30 0 0 0
SMALL
GASTEIGER

@<TRIPOS>ATOM
      1 C          62.3844   88.9990   10.7576 C.ar    1  UNL1        0.0814
      2 C          62.8046   87.8434   11.6165 C.ar    1  UNL1        0.0380
      3 C          62.2206   86.4821   11.3802 C.ar    1  UNL1        0.1017
      4 C          61.2166   86.2765   10.2850 C.ar    1  UNL1        0.1004
      5 N          60.7964   87.4322    9.4260 N.ar    1  UNL1       -0.2905
      6 C          59.8340   87.5332    8.2800 C.ar    1  UNL1        0.0567
      7 C          59.0245   86.4080    7.7066 C.3     1  UNL1        0.0517
      8 C          59.8230   88.9570    7.8080 C.ar    1  UNL1        0.0730
      9 C          59.0007   89.5055    6.6797 C.3     1  UNL1        0.0534
     10 N          60.7788   89.7359    8.6623 N.ar    1  UNL1       -0.2299
     11 C          61.3804   88.7934    9.6623 C.ar    1  UNL1        0.1604
     12 N          62.6408   85.3263   12.2392 N.ar    1  UNL1       -0.2266
     13 C          62.7015   83.8888   11.8150 C.ar    1  UNL1        0.1021
     14 C          63.1722   83.0793   12.9868 C.ar    1  UNL1        0.0431
     15 C          63.4024   84.0164   14.1352 C.ar    1  UNL1        0.1221
     16 N          63.0740   85.4052   13.6731 N.ar    1  UNL1       -0.1634
     17 N          62.9684   90.3604   10.9938 N.pl3   1  UNL1       -0.3267
     18 H          63.2517   90.9138   10.2305 H       1  UNL1        0.1472
     19 C          63.1206   90.8786   12.3932 C.3     1  UNL1        0.1137
     20 C          64.8948   92.6781   10.7765 C.3     1  UNL1        0.0307
     21 C          65.3644   92.1553   12.1016 C.ar    1  UNL1       -0.0245
     22 C          66.7212   92.5323   12.6185 C.ar    1  UNL1       -0.0045
     23 C          67.1908   92.0095   13.9437 C.ar    1  UNL1       -0.0007
     24 C          66.3037   91.1097   14.7520 C.ar    1  UNL1       -0.0045
     25 C          64.9470   90.7328   14.2352 C.ar    1  UNL1       -0.0245
     26 C          64.0598   89.8330   15.0436 C.3     1  UNL1        0.0307
     27 C          64.4773   91.2556   12.9100 C.ar    1  UNL1       -0.0105
@<TRIPOS>BOND
     1    20    21    1
     2    21    22   ar
     3    22    23   ar
     4    23    24   ar
     5    24    25   ar
     6    25    26    1
     7    25    27   ar
     8    27    19    1
     9    19    17    1
    10    17     1    1
    11     1     2   ar
    12     2     3   ar
    13     3    12    1
    14    12    13   ar
    15    13    14   ar
    16    14    15   ar
    17    15    16   ar
    18     3     4   ar
    19     4     5   ar
    20     5     6   ar
    21     6     7    1
    22     6     8   ar
    23     8     9    1
    24     8    10   ar
    25    10    11   ar
    26    27    21   ar
    27    11     1   ar
    28    16    12   ar
    29    11     5   ar
    30    17    18    1
@<TRIPOS>MOLECULE
*****
 27 30 0 0 0
SMALL
GASTEIGER

@<TRIPOS>ATOM
      1 C          62.8824   86.7653   12.5885 C.ar    1  UNL1        0.0814
      2 C          61.9903   86.5813   11.3968 C.ar    1  UNL1        0.0380
      3 C          61.6659   87.7507   10.5152 C.ar    1  UNL1        0.1017
      4 C          62.2336   89.1040   10.8253 C.ar    1  UNL1        0.1004
      5 N          63.1257   89.2880   12.0170 N.ar    1  UNL1       -0.2905
      6 C          63.8271   90.4935   12.5692 C.ar    1  UNL1        0.0567
      7 C          63.7790   91.8799   11.9986 C.3     1  UNL1        0.0517
      8 C          64.5849   90.0692   13.7922 C.ar    1  UNL1        0.0730
      9 C          65.4278   90.9568   14.6593 C.3     1  UNL1        0.0534
     10 N          64.3520   88.6014   13.9958 N.ar    1  UNL1       -0.2299
     11 C          63.4501   88.1187   12.8986 C.ar    1  UNL1        0.1604
     12 N          60.7738   87.5667    9.3234 N.ar    1  UNL1       -0.2266
     13 C          60.4093   86.2575    8.6886 C.ar    1  UNL1        0.1021
     14 C          59.4997   86.5414    7.5301 C.ar    1  UNL1        0.0431
     15 C          59.3021   88.0261    7.4488 C.ar    1  UNL1        0.1221
     16 N          60.0895   88.6598    8.5572 N.ar    1  UNL1       -0.1634
     17 N          63.2068   85.5959   13.4702 N.pl3   1  UNL1       -0.3267
     18 H          62.8844   85.5762   14.4002 H       1  UNL1        0.1472
     19 C          64.0225   84.4566   12.9349 C.3     1  UNL1        0.1137
     20 C          64.1611   82.8306   10.4176 C.3     1  UNL1        0.0307
     21 C          63.5164   82.2588   11.6453 C.ar    1  UNL1       -0.0245
     22 C          62.9409   80.8738   11.6143 C.ar    1  UNL1       -0.0045
     23 C          62.2961   80.3020   12.8420 C.ar    1  UNL1       -0.0007
     24 C          62.2268   81.1150   14.1007 C.ar    1  UNL1       -0.0045
     25 C          62.8023   82.4998   14.1317 C.ar    1  UNL1       -0.0245
     26 C          62.7330   83.3128   15.3903 C.3     1  UNL1        0.0307
     27 C          63.4471   83.0718   12.9040 C.ar    1  UNL1       -0.0105
@<TRIPOS>BOND
     1    20    21    1
     2    21    22   ar
     3    22    23   ar
     4    23    24   ar
     5    24    25   ar
     6    25    26    1
     7    25    27   ar
     8    27    19    1
     9    19    17    1
    10    17     1    1
    11     1     2   ar
    12     2     3   ar
    13     3    12    1
    14    12    13   ar
    15    13    14   ar
    16    14    15   ar
    17    15    16   ar
    18     3     4   ar
    19     4     5   ar
    20     5     6   ar
    21     6     7    1
    22     6     8   ar
    23     8     9    1
    24     8    10   ar
    25    10    11   ar
    26    27    21   ar
    27    11     1   ar
    28    16    12   ar
    29    11     5   ar
    30    17    18    1
@<TRIPOS>MOLECULE
*****
 27 30 0 0 0
SMALL
GASTEIGER

@<TRIPOS>ATOM
      1 C          62.3688   88.9753   10.7905 C.ar    1  UNL1        0.0814
      2 C          62.7895   87.8139   11.6415 C.ar    1  UNL1        0.0380
      3 C          62.2200   86.4504   11.3840 C.ar    1  UNL1        0.1017
      4 C          61.2299   86.2481   10.2755 C.ar    1  UNL1        0.1004
      5 N          60.8092   87.4095    9.4246 N.ar    1  UNL1       -0.2905
      6 C          59.8585   87.5148    8.2691 C.ar    1  UNL1        0.0567
      7 C          59.0652   86.3891    7.6747 C.3     1  UNL1        0.0517
      8 C          59.8404   88.9435    7.8124 C.ar    1  UNL1        0.0730
      9 C          59.0258   89.4973    6.6811 C.3     1  UNL1        0.0534
     10 N          60.7799   89.7212    8.6856 N.ar    1  UNL1       -0.2299
     11 C          61.3786   88.7731    9.6820 C.ar    1  UNL1        0.1604
     12 N          62.6407   85.2889   12.2350 N.ar    1  UNL1       -0.2266
     13 C          62.7127   83.8559   11.7978 C.ar    1  UNL1        0.1021
     14 C          63.1797   83.0380   12.9652 C.ar    1  UNL1        0.0431
     15 C          63.3965   83.9656   14.1240 C.ar    1  UNL1        0.1221
     16 N          63.0634   85.3567   13.6727 N.ar    1  UNL1       -0.1634
     17 N          62.9383   90.3390   11.0479 N.pl3   1  UNL1       -0.3267
     18 H          63.2002   90.9136   10.2927 H       1  UNL1        0.1472
     19 C          63.1086   90.8270   12.4560 C.3     1  UNL1        0.1137
     20 C          64.0840   89.8763   15.1290 C.3     1  UNL1        0.0307
     21 C          64.9523   90.7618   14.2853 C.ar    1  UNL1       -0.0245
     22 C          66.3085   91.1719   14.7781 C.ar    1  UNL1       -0.0045
     23 C          67.1768   92.0574   13.9344 C.ar    1  UNL1       -0.0007
     24 C          66.6891   92.5327   12.5979 C.ar    1  UNL1       -0.0045
     25 C          65.3331   92.1226   12.1051 C.ar    1  UNL1       -0.0245
     26 C          64.8454   92.5980   10.7686 C.3     1  UNL1        0.0307
     27 C          64.4646   91.2371   12.9488 C.ar    1  UNL1       -0.0105
@<TRIPOS>BOND
     1    20    21    1
     2    21    22   ar
     3    22    23   ar
     4    23    24   ar
     5    24    25   ar
     6    25    26    1
     7    25    27   ar
     8    27    19    1
     9    19    17    1
    10    17     1    1
    11     1     2   ar
    12     2     3   ar
    13     3    12    1
    14    12    13   ar
    15    13    14   ar
    16    14    15   ar
    17    15    16   ar
    18     3     4   ar
    19     4     5   ar
    20     5     6   ar
    21     6     7    1
    22     6     8   ar
    23     8     9    1
    24     8    10   ar
    25    10    11   ar
    26    27    21   ar
    27    11     1   ar
    28    16    12   ar
    29    11     5   ar
    30    17    18    1
@<TRIPOS>MOLECULE
*****
 27 30 0 0 0
SMALL
GASTEIGER

@<TRIPOS>ATOM
      1 C          63.7294   87.1344   13.7801 C.ar    1  UNL1        0.0814
      2 C          64.3102   88.2596   14.5842 C.ar    1  UNL1        0.0380
      3 C          64.2180   89.6686   14.0782 C.ar    1  UNL1        0.1017
      4 C          63.5450   89.9525   12.7681 C.ar    1  UNL1        0.1004
      5 N          62.9641   88.8274   11.9640 N.ar    1  UNL1       -0.2905
      6 C          62.2471   88.8009   10.6467 C.ar    1  UNL1        0.0567
      7 C          61.9357   89.9909    9.7883 C.3     1  UNL1        0.0517
      8 C          61.8962   87.3754   10.3386 C.ar    1  UNL1        0.0730
      9 C          61.1722   86.8897    9.1179 C.3     1  UNL1        0.0534
     10 N          62.3963   86.5209   11.4654 N.ar    1  UNL1       -0.2299
     11 C          63.0563   87.4184   12.4700 C.ar    1  UNL1        0.1604
     12 N          64.7989   90.7938   14.8824 N.ar    1  UNL1       -0.2266
     13 C          66.1643   91.3897   14.7070 C.ar    1  UNL1        0.1021
     14 C          66.3256   92.4848   15.7193 C.ar    1  UNL1        0.0431
     15 C          65.0598   92.5658   16.5203 C.ar    1  UNL1        0.1221
     16 N          64.1163   91.5207   16.0030 N.ar    1  UNL1       -0.1634
     17 N          63.8215   85.7253   14.2861 N.pl3   1  UNL1       -0.3267
     18 H          63.5462   85.5141   15.2074 H       1  UNL1        0.1472
     19 C          64.3331   84.6380   13.3883 C.3     1  UNL1        0.1137
     20 C          64.5163   83.0254   10.8652 C.3     1  UNL1        0.0307
     21 C          63.6683   82.5423   12.0042 C.ar    1  UNL1       -0.0245
     22 C          62.9117   81.2528   11.8816 C.ar    1  UNL1       -0.0045
     23 C          62.0636   80.7697   13.0206 C.ar    1  UNL1       -0.0007
     24 C          61.9720   81.5760   14.2821 C.ar    1  UNL1       -0.0045
     25 C          62.7285   82.8654   14.4047 C.ar    1  UNL1       -0.0245
     26 C          62.6369   83.6717   15.6662 C.3     1  UNL1        0.0307
     27 C          63.5766   83.3486   13.2657 C.ar    1  UNL1       -0.0105
@<TRIPOS>BOND
     1    20    21    1
     2    21    22   ar
     3    22    23   ar
     4    23    24   ar
     5    24    25   ar
     6    25    26    1
     7    25    27   ar
     8    27    19    1
     9    19    17    1
    10    17     1    1
    11     1     2   ar
    12     2     3   ar
    13     3    12    1
    14    12    13   ar
    15    13    14   ar
    16    14    15   ar
    17    15    16   ar
    18     3     4   ar
    19     4     5   ar
    20     5     6   ar
    21     6     7    1
    22     6     8   ar
    23     8     9    1
    24     8    10   ar
    25    10    11   ar
    26    27    21   ar
    27    11     1   ar
    28    16    12   ar
    29    11     5   ar
    30    17    18    1
@<TRIPOS>MOLECULE
*****
 27 30 0 0 0
SMALL
GASTEIGER

@<TRIPOS>ATOM
      1 C          63.0293   87.8626   12.3891 C.ar    1  UNL1        0.0814
      2 C          62.1774   88.1905   11.1988 C.ar    1  UNL1        0.0380
      3 C          61.5098   87.0901   10.4284 C.ar    1  UNL1        0.1017
      4 C          61.6941   85.6619   10.8483 C.ar    1  UNL1        0.1004
      5 N          62.5460   85.3341   12.0385 N.ar    1  UNL1       -0.2905
      6 C          62.9087   84.0298   12.6846 C.ar    1  UNL1        0.0567
      7 C          62.4586   82.6701   12.2391 C.3     1  UNL1        0.0517
      8 C          63.8005   84.3241   13.8543 C.ar    1  UNL1        0.0730
      9 C          64.3988   83.3102   14.7839 C.3     1  UNL1        0.0534
     10 N          63.9890   85.8102   13.9311 N.ar    1  UNL1       -0.2299
     11 C          63.2136   86.4344   12.8089 C.ar    1  UNL1        0.1604
     12 N          60.6578   87.4180    9.2381 N.ar    1  UNL1       -0.2266
     13 C          59.9794   86.4269    8.3396 C.ar    1  UNL1        0.1021
     14 C          59.2370   87.1909    7.2836 C.ar    1  UNL1        0.0431
     15 C          59.4566   88.6542    7.5295 C.ar    1  UNL1        0.1221
     16 N          60.3347   88.7946    8.7375 N.ar    1  UNL1       -0.1634
     17 N          63.6970   88.9630   13.1595 N.pl3   1  UNL1       -0.3267
     18 H          64.2065   88.7535   13.9755 H       1  UNL1        0.1472
     19 C          63.5883   90.3823   12.6867 C.3     1  UNL1        0.1137
     20 C          64.2566   90.6047   15.6029 C.3     1  UNL1        0.0307
     21 C          64.9146   91.5173   14.6109 C.ar    1  UNL1       -0.0245
     22 C          65.9069   92.5412   15.0770 C.ar    1  UNL1       -0.0045
     23 C          66.5649   93.4539   14.0850 C.ar    1  UNL1       -0.0007
     24 C          66.2308   93.3427   12.6270 C.ar    1  UNL1       -0.0045
     25 C          65.2386   92.3189   12.1608 C.ar    1  UNL1       -0.0245
     26 C          64.9044   92.2077   10.7028 C.3     1  UNL1        0.0307
     27 C          64.5805   91.4062   13.1528 C.ar    1  UNL1       -0.0105
@<TRIPOS>BOND
     1    20    21    1
     2    21    22   ar
     3    22    23   ar
     4    23    24   ar
     5    24    25   ar
     6    25    26    1
     7    25    27   ar
     8    27    19    1
     9    19    17    1
    10    17     1    1
    11     1     2   ar
    12     2     3   ar
    13     3    12    1
    14    12    13   ar
    15    13    14   ar
    16    14    15   ar
    17    15    16   ar
    18     3     4   ar
    19     4     5   ar
    20     5     6   ar
    21     6     7    1
    22     6     8   ar
    23     8     9    1
    24     8    10   ar
    25    10    11   ar
    26    27    21   ar
    27    11     1   ar
    28    16    12   ar
    29    11     5   ar
    30    17    18    1
@<TRIPOS>MOLECULE
*****
 27 30 0 0 0
SMALL
GASTEIGER

@<TRIPOS>ATOM
      1 C          62.9692   87.9663   12.3618 C.ar    1  UNL1        0.0814
      2 C          62.1092   88.3029   11.1798 C.ar    1  UNL1        0.0380
      3 C          61.4564   87.2068   10.3910 C.ar    1  UNL1        0.1017
      4 C          61.6635   85.7741   10.7841 C.ar    1  UNL1        0.1004
      5 N          62.5236   85.4375   11.9660 N.ar    1  UNL1       -0.2905
      6 C          62.9079   84.1274   12.5871 C.ar    1  UNL1        0.0567
      7 C          62.4774   82.7693   12.1179 C.3     1  UNL1        0.0517
      8 C          63.7983   84.4137   13.7598 C.ar    1  UNL1        0.0730
      9 C          64.4144   83.3922   14.6692 C.3     1  UNL1        0.0534
     10 N          63.9643   85.9009   13.8635 N.ar    1  UNL1       -0.2299
     11 C          63.1764   86.5336   12.7549 C.ar    1  UNL1        0.1604
     12 N          60.5963   87.5433    9.2090 N.ar    1  UNL1       -0.2266
     13 C          59.8330   86.5645    8.3668 C.ar    1  UNL1        0.1021
     14 C          59.1135   87.3340    7.2990 C.ar    1  UNL1        0.0431
     15 C          59.4320   88.7885    7.4813 C.ar    1  UNL1        0.1221
     16 N          60.3484   88.9178    8.6618 N.ar    1  UNL1       -0.1634
     17 N          63.6222   89.0624   13.1507 N.pl3   1  UNL1       -0.3267
     18 H          64.0866   88.8531   13.9931 H       1  UNL1        0.1472
     19 C          63.5674   90.4774   12.6560 C.3     1  UNL1        0.1137
     20 C          64.9426   92.2527   10.6666 C.3     1  UNL1        0.0307
     21 C          65.2755   92.3617   12.1251 C.ar    1  UNL1       -0.0245
     22 C          66.2960   93.3585   12.5890 C.ar    1  UNL1       -0.0045
     23 C          66.6290   93.4675   14.0475 C.ar    1  UNL1       -0.0007
     24 C          65.9414   92.5799   15.0421 C.ar    1  UNL1       -0.0045
     25 C          64.9209   91.5832   14.5783 C.ar    1  UNL1       -0.0245
     26 C          64.2333   90.6956   15.5730 C.3     1  UNL1        0.0307
     27 C          64.5879   91.4741   13.1198 C.ar    1  UNL1       -0.0105
@<TRIPOS>BOND
     1    20    21    1
     2    21    22   ar
     3    22    23   ar
     4    23    24   ar
     5    24    25   ar
     6    25    26    1
     7    25    27   ar
     8    27    19    1
     9    19    17    1
    10    17     1    1
    11     1     2   ar
    12     2     3   ar
    13     3    12    1
    14    12    13   ar
    15    13    14   ar
    16    14    15   ar
    17    15    16   ar
    18     3     4   ar
    19     4     5   ar
    20     5     6   ar
    21     6     7    1
    22     6     8   ar
    23     8     9    1
    24     8    10   ar
    25    10    11   ar
    26    27    21   ar
    27    11     1   ar
    28    16    12   ar
    29    11     5   ar
    30    17    18    1
