@<TRIPOS>MOLECULE
*****
 26 29 0 0 0
SMALL
GASTEIGER

@<TRIPOS>ATOM
      1 C          62.7970   86.3875   17.7960 C.3     1  UNL1        0.0340
      2 C          63.2067   87.3984   16.7664 C.ar    1  UNL1        0.0107
      3 C          62.9576   88.8578   17.0075 C.ar    1  UNL1        0.0958
      4 N          63.3673   89.8688   15.9779 N.ar    1  UNL1       -0.2440
      5 C          64.0263   89.4204   14.7072 C.ar    1  UNL1        0.0847
      6 C          64.2755   87.9610   14.4660 C.ar    1  UNL1        0.0335
      7 C          63.8657   86.9501   15.4956 C.ar    1  UNL1        0.0471
      8 C          64.4360   90.4314   13.6776 C.ar    1  UNL1        0.0460
      9 C          63.6788   90.5368   12.3871 C.ar    1  UNL1        0.0151
     10 C          64.0886   91.5478   11.3575 C.ar    1  UNL1        0.0579
     11 CL         63.3314   91.6533   10.0670 Cl      1  UNL1       -0.0822
     12 C          65.2556   92.4533   11.6186 C.ar    1  UNL1        0.0137
     13 C          66.0128   92.3478   12.9090 C.ar    1  UNL1        0.0306
     14 C          65.6031   91.3369   13.9386 C.ar    1  UNL1        0.1416
     15 F          66.3603   91.2314   15.2291 F       1  UNL1       -0.2041
     16 N          64.1149   85.4907   15.2545 N.pl3   1  UNL1       -0.3141
     17 H          64.6227   84.9628   15.9122 H       1  UNL1        0.1520
     18 C          63.5903   84.8357   14.0112 C.2     1  UNL1        0.0571
     19 C          63.1731   85.6751   12.8401 C.2     1  UNL1        0.0332
     20 C          62.6486   85.0201   11.5969 C.2     1  UNL1        0.0996
     21 N          62.5413   83.5257   11.5245 N.2     1  UNL1       -0.2441
     22 C          62.9585   82.6863   12.6955 C.2     1  UNL1        0.1094
     23 C          62.9667   81.2024   12.9146 C.2     1  UNL1        0.1387
     24 N          63.4962   80.9403   14.2933 N.2     1  UNL1       -0.1491
     25 N          63.8154   82.2622   14.9263 N.2     1  UNL1       -0.1644
     26 C          63.4831   83.3413   13.9389 C.3     1  UNL1        0.2016
@<TRIPOS>BOND
     1     1     2    1
     2     2     3   ar
     3     3     4   ar
     4     4     5   ar
     5     5     8    1
     6     8     9   ar
     7     9    10   ar
     8    10    11    1
     9    10    12   ar
    10    12    13   ar
    11    13    14   ar
    12    14    15    1
    13     5     6   ar
    14     6     7   ar
    15     7    16    1
    16    16    18    1
    17    18    19    2
    18    19    20    1
    19    20    21    2
    20    21    22    1
    21    22    23    2
    22    23    24    1
    23    24    25    2
    24    25    26    1
    25     7     2   ar
    26    26    18    1
    27    14     8   ar
    28    26    22    1
    29    16    17    1
@<TRIPOS>MOLECULE
*****
 26 29 0 0 0
SMALL
GASTEIGER

@<TRIPOS>ATOM
      1 C          64.4620   88.9106   14.8800 C.3     1  UNL1        0.0340
      2 C          63.7530   88.4295   13.6488 C.ar    1  UNL1        0.0107
      3 C          63.6604   86.9600   13.3626 C.ar    1  UNL1        0.0958
      4 N          62.9514   86.4789   12.1313 N.ar    1  UNL1       -0.2440
      5 C          62.3350   87.4673   11.1864 C.ar    1  UNL1        0.0847
      6 C          62.4275   88.9369   11.4725 C.ar    1  UNL1        0.0335
      7 C          63.1365   89.4180   12.7037 C.ar    1  UNL1        0.0471
      8 C          61.6260   86.9862    9.9552 C.ar    1  UNL1        0.0460
      9 C          62.3424   86.1092    8.9715 C.ar    1  UNL1        0.0151
     10 C          61.6333   85.6281    7.7402 C.ar    1  UNL1        0.0579
     11 CL         62.3497   84.7512    6.7566 Cl      1  UNL1       -0.0822
     12 C          60.2079   86.0242    7.4928 C.ar    1  UNL1        0.0137
     13 C          59.4915   86.9011    8.4764 C.ar    1  UNL1        0.0306
     14 C          60.2005   87.3822    9.7076 C.ar    1  UNL1        0.1416
     15 F          59.4841   88.2592   10.6913 F       1  UNL1       -0.2041
     16 N          63.2291   90.8875   12.9899 N.pl3   1  UNL1       -0.3141
     17 H          62.4864   91.3485   13.4428 H       1  UNL1        0.1520
     18 C          64.4533   91.6546   12.5862 C.2     1  UNL1        0.0571
     19 C          64.7517   91.8803   11.1336 C.2     1  UNL1        0.0332
     20 C          65.9757   92.6474   10.7298 C.2     1  UNL1        0.0996
     21 N          66.9016   93.1888   11.7786 N.2     1  UNL1       -0.2441
     22 C          66.6031   92.9630   13.2312 C.2     1  UNL1        0.1094
     23 C          67.3259   93.3733   14.4799 C.2     1  UNL1        0.1387
     24 N          66.5484   92.8598   15.6554 N.2     1  UNL1       -0.1491
     25 N          65.3452   92.1321   15.1332 N.2     1  UNL1       -0.1644
     26 C          65.3790   92.1959   13.6350 C.3     1  UNL1        0.2016
@<TRIPOS>BOND
     1     1     2    1
     2     2     3   ar
     3     3     4   ar
     4     4     5   ar
     5     5     8    1
     6     8     9   ar
     7     9    10   ar
     8    10    11    1
     9    10    12   ar
    10    12    13   ar
    11    13    14   ar
    12    14    15    1
    13     5     6   ar
    14     6     7   ar
    15     7    16    1
    16    16    18    1
    17    18    19    2
    18    19    20    1
    19    20    21    2
    20    21    22    1
    21    22    23    2
    22    23    24    1
    23    24    25    2
    24    25    26    1
    25     7     2   ar
    26    26    18    1
    27    14     8   ar
    28    26    22    1
    29    16    17    1
@<TRIPOS>MOLECULE
*****
 26 29 0 0 0
SMALL
GASTEIGER

@<TRIPOS>ATOM
      1 C          59.8466   89.2184    8.4833 C.3     1  UNL1        0.0340
      2 C          60.5905   88.1092    9.1660 C.ar    1  UNL1        0.0107
      3 C          60.6574   86.7507    8.5336 C.ar    1  UNL1        0.0958
      4 N          61.4013   85.6413    9.2163 N.ar    1  UNL1       -0.2440
      5 C          62.0784   85.8905   10.5313 C.ar    1  UNL1        0.0847
      6 C          62.0116   87.2490   11.1638 C.ar    1  UNL1        0.0335
      7 C          61.2676   88.3583   10.4811 C.ar    1  UNL1        0.0471
      8 C          62.8223   84.7812   11.2140 C.ar    1  UNL1        0.0460
      9 C          62.7621   84.6453   12.7066 C.ar    1  UNL1        0.0151
     10 C          63.5060   83.5359   13.3893 C.ar    1  UNL1        0.0579
     11 CL         63.4459   83.3999   14.8818 Cl      1  UNL1       -0.0822
     12 C          64.3101   82.5626   12.5792 C.ar    1  UNL1        0.0137
     13 C          64.3703   82.6986   11.0867 C.ar    1  UNL1        0.0306
     14 C          63.6264   83.8079   10.4040 C.ar    1  UNL1        0.1416
     15 F          63.6866   83.9438    8.9114 F       1  UNL1       -0.2041
     16 N          61.2008   89.7168   11.1135 N.pl3   1  UNL1       -0.3141
     17 H          60.3272   90.1327   11.2953 H       1  UNL1        0.1520
     18 C          62.4650   90.4417   11.4690 C.2     1  UNL1        0.0571
     19 C          63.2355   91.1701   10.4080 C.2     1  UNL1        0.0332
     20 C          64.4997   91.8950   10.7633 C.2     1  UNL1        0.0996
     21 N          64.9935   91.8914   12.1798 N.2     1  UNL1       -0.2441
     22 C          64.2230   91.1630   13.2408 C.2     1  UNL1        0.1094
     23 C          64.4617   90.9851   14.7109 C.2     1  UNL1        0.1387
     24 N          63.3450   90.1503   15.2641 N.2     1  UNL1       -0.1491
     25 N          62.4161   89.8122   14.1359 N.2     1  UNL1       -0.1644
     26 C          62.9587   90.4381   12.8854 C.3     1  UNL1        0.2016
@<TRIPOS>BOND
     1     1     2    1
     2     2     3   ar
     3     3     4   ar
     4     4     5   ar
     5     5     8    1
     6     8     9   ar
     7     9    10   ar
     8    10    11    1
     9    10    12   ar
    10    12    13   ar
    11    13    14   ar
    12    14    15    1
    13     5     6   ar
    14     6     7   ar
    15     7    16    1
    16    16    18    1
    17    18    19    2
    18    19    20    1
    19    20    21    2
    20    21    22    1
    21    22    23    2
    22    23    24    1
    23    24    25    2
    24    25    26    1
    25     7     2   ar
    26    26    18    1
    27    14     8   ar
    28    26    22    1
    29    16    17    1
@<TRIPOS>MOLECULE
*****
 26 29 0 0 0
SMALL
GASTEIGER

@<TRIPOS>ATOM
      1 C          65.9529   91.6096   14.9140 C.3     1  UNL1        0.0340
      2 C          65.0185   90.9958   13.9139 C.ar    1  UNL1        0.0107
      3 C          64.3960   89.6594   14.1907 C.ar    1  UNL1        0.0958
      4 N          63.4616   89.0456   13.1906 N.ar    1  UNL1       -0.2440
      5 C          63.1497   89.7681   11.9137 C.ar    1  UNL1        0.0847
      6 C          63.7722   91.1045   11.6368 C.ar    1  UNL1        0.0335
      7 C          64.7066   91.7183   12.6369 C.ar    1  UNL1        0.0471
      8 C          62.2154   89.1543   10.9136 C.ar    1  UNL1        0.0460
      9 C          62.5654   87.8489   10.2628 C.ar    1  UNL1        0.0151
     10 C          61.6310   87.2351    9.2627 C.ar    1  UNL1        0.0579
     11 CL         61.9809   85.9298    8.6119 Cl      1  UNL1       -0.0822
     12 C          60.3466   87.9269    8.9134 C.ar    1  UNL1        0.0137
     13 C          59.9967   89.2322    9.5641 C.ar    1  UNL1        0.0306
     14 C          60.9310   89.8460   10.5642 C.ar    1  UNL1        0.1416
     15 F          60.5810   91.1514   11.2149 F       1  UNL1       -0.2041
     16 N          65.3291   93.0547   12.3600 N.pl3   1  UNL1       -0.3141
     17 H          65.0857   93.8344   12.9096 H       1  UNL1        0.1520
     18 C          66.3224   93.2030   11.2459 C.2     1  UNL1        0.0571
     19 C          67.3192   92.1141   10.9799 C.2     1  UNL1        0.0332
     20 C          68.3125   92.2624    9.8658 C.2     1  UNL1        0.0996
     21 N          68.3091   93.4997    9.0176 N.2     1  UNL1       -0.2441
     22 C          67.3123   94.5885    9.2837 C.2     1  UNL1        0.1094
     23 C          67.0701   95.9116    8.6197 C.2     1  UNL1        0.1387
     24 N          65.9271   96.5810    9.3235 N.2     1  UNL1       -0.1491
     25 N          65.4628   95.6716   10.4224 N.2     1  UNL1       -0.1644
     26 C          66.3190   94.4402   10.3978 C.3     1  UNL1        0.2016
@<TRIPOS>BOND
     1     1     2    1
     2     2     3   ar
     3     3     4   ar
     4     4     5   ar
     5     5     8    1
     6     8     9   ar
     7     9    10   ar
     8    10    11    1
     9    10    12   ar
    10    12    13   ar
    11    13    14   ar
    12    14    15    1
    13     5     6   ar
    14     6     7   ar
    15     7    16    1
    16    16    18    1
    17    18    19    2
    18    19    20    1
    19    20    21    2
    20    21    22    1
    21    22    23    2
    22    23    24    1
    23    24    25    2
    24    25    26    1
    25     7     2   ar
    26    26    18    1
    27    14     8   ar
    28    26    22    1
    29    16    17    1
@<TRIPOS>MOLECULE
*****
 26 29 0 0 0
SMALL
GASTEIGER

@<TRIPOS>ATOM
      1 C          59.9015   87.6329    9.1439 C.3     1  UNL1        0.0340
      2 C          60.9172   88.3896    9.9474 C.ar    1  UNL1        0.0107
      3 C          61.2402   89.8124    9.5992 C.ar    1  UNL1        0.0958
      4 N          62.2560   90.5692   10.4028 N.ar    1  UNL1       -0.2440
      5 C          62.9487   89.9032   11.5544 C.ar    1  UNL1        0.0847
      6 C          62.6258   88.4803   11.9026 C.ar    1  UNL1        0.0335
      7 C          61.6101   87.7236   11.0991 C.ar    1  UNL1        0.0471
      8 C          63.9645   90.6599   12.3578 C.ar    1  UNL1        0.0460
      9 C          64.5540   91.9290   11.8175 C.ar    1  UNL1        0.0151
     10 C          65.5698   92.6857   12.6211 C.ar    1  UNL1        0.0579
     11 CL         66.1593   93.9547   12.0808 Cl      1  UNL1       -0.0822
     12 C          65.9959   92.1733   13.9649 C.ar    1  UNL1        0.0137
     13 C          65.4064   90.9043   14.5051 C.ar    1  UNL1        0.0306
     14 C          64.3907   90.1476   13.7017 C.ar    1  UNL1        0.1416
     15 F          63.8011   88.8785   14.2420 F       1  UNL1       -0.2041
     16 N          61.2871   86.3007   11.4473 N.pl3   1  UNL1       -0.3141
     17 H          60.3705   86.0537   11.7081 H       1  UNL1        0.1520
     18 C          62.3607   85.2544   11.3982 C.2     1  UNL1        0.0571
     19 C          62.8154   84.7077   10.0774 C.2     1  UNL1        0.0332
     20 C          63.8889   83.6614   10.0283 C.2     1  UNL1        0.0996
     21 N          64.5080   83.1616   11.2999 N.2     1  UNL1       -0.2441
     22 C          64.0533   83.7082   12.6207 C.2     1  UNL1        0.1094
     23 C          64.4754   83.4105   14.0290 C.2     1  UNL1        0.1387
     24 N          63.6626   84.2730   14.9485 N.2     1  UNL1       -0.1491
     25 N          62.7382   85.1037   14.1085 N.2     1  UNL1       -0.1644
     26 C          62.9797   84.7546   12.6698 C.3     1  UNL1        0.2016
@<TRIPOS>BOND
     1     1     2    1
     2     2     3   ar
     3     3     4   ar
     4     4     5   ar
     5     5     8    1
     6     8     9   ar
     7     9    10   ar
     8    10    11    1
     9    10    12   ar
    10    12    13   ar
    11    13    14   ar
    12    14    15    1
    13     5     6   ar
    14     6     7   ar
    15     7    16    1
    16    16    18    1
    17    18    19    2
    18    19    20    1
    19    20    21    2
    20    21    22    1
    21    22    23    2
    22    23    24    1
    23    24    25    2
    24    25    26    1
    25     7     2   ar
    26    26    18    1
    27    14     8   ar
    28    26    22    1
    29    16    17    1
@<TRIPOS>MOLECULE
*****
 26 29 0 0 0
SMALL
GASTEIGER

@<TRIPOS>ATOM
      1 C          62.7611   86.3590   17.7755 C.3     1  UNL1        0.0340
      2 C          63.1564   87.3717   16.7421 C.ar    1  UNL1        0.0107
      3 C          62.6404   88.7772   16.8333 C.ar    1  UNL1        0.0958
      4 N          63.0358   89.7900   15.7998 N.ar    1  UNL1       -0.2440
      5 C          63.9472   89.3973   14.6751 C.ar    1  UNL1        0.0847
      6 C          64.4633   87.9917   14.5838 C.ar    1  UNL1        0.0335
      7 C          64.0679   86.9790   15.6173 C.ar    1  UNL1        0.0471
      8 C          64.3425   90.4100   13.6417 C.ar    1  UNL1        0.0460
      9 C          63.6008   90.4819   12.3399 C.ar    1  UNL1        0.0151
     10 C          63.9962   91.4947   11.3063 C.ar    1  UNL1        0.0579
     11 CL         63.2546   91.5667   10.0046 Cl      1  UNL1       -0.0822
     12 C          65.1334   92.4354   11.5748 C.ar    1  UNL1        0.0137
     13 C          65.8750   92.3634   12.8765 C.ar    1  UNL1        0.0306
     14 C          65.4796   91.3507   13.9100 C.ar    1  UNL1        0.1416
     15 F          66.2214   91.2787   15.2118 F       1  UNL1       -0.2041
     16 N          64.5840   85.5736   15.5260 N.pl3   1  UNL1       -0.3141
     17 H          65.3517   85.2945   16.0755 H       1  UNL1        0.1520
     18 C          63.9304   84.5934   14.5976 C.2     1  UNL1        0.0571
     19 C          63.8854   83.1373   14.9548 C.2     1  UNL1        0.0332
     20 C          63.2318   82.1571   14.0265 C.2     1  UNL1        0.0996
     21 N          62.6231   82.6330   12.7407 N.2     1  UNL1       -0.2441
     22 C          62.6681   84.0891   12.3835 C.2     1  UNL1        0.1094
     23 C          62.1565   84.8471   11.1944 C.2     1  UNL1        0.1387
     24 N          62.4940   86.2957   11.3880 N.2     1  UNL1       -0.1491
     25 N          63.2141   86.4331   12.6967 N.2     1  UNL1       -0.1644
     26 C          63.3217   85.0693   13.3119 C.3     1  UNL1        0.2016
@<TRIPOS>BOND
     1     1     2    1
     2     2     3   ar
     3     3     4   ar
     4     4     5   ar
     5     5     8    1
     6     8     9   ar
     7     9    10   ar
     8    10    11    1
     9    10    12   ar
    10    12    13   ar
    11    13    14   ar
    12    14    15    1
    13     5     6   ar
    14     6     7   ar
    15     7    16    1
    16    16    18    1
    17    18    19    2
    18    19    20    1
    19    20    21    2
    20    21    22    1
    21    22    23    2
    22    23    24    1
    23    24    25    2
    24    25    26    1
    25     7     2   ar
    26    26    18    1
    27    14     8   ar
    28    26    22    1
    29    16    17    1
@<TRIPOS>MOLECULE
*****
 26 29 0 0 0
SMALL
GASTEIGER

@<TRIPOS>ATOM
      1 C          62.8260   85.6184   17.3451 C.3     1  UNL1        0.0340
      2 C          63.2503   86.7897   16.5097 C.ar    1  UNL1        0.0107
      3 C          62.9088   88.1841   16.9447 C.ar    1  UNL1        0.0958
      4 N          63.3332   89.3555   16.1093 N.ar    1  UNL1       -0.2440
      5 C          64.0990   89.1325   14.8390 C.ar    1  UNL1        0.0847
      6 C          64.4405   87.7382   14.4039 C.ar    1  UNL1        0.0335
      7 C          64.0162   86.5668   15.2393 C.ar    1  UNL1        0.0471
      8 C          64.5234   90.3039   14.0036 C.ar    1  UNL1        0.0460
      9 C          65.5745   91.2457   14.5115 C.ar    1  UNL1        0.0151
     10 C          65.9989   92.4171   13.6761 C.ar    1  UNL1        0.0579
     11 CL         67.0500   93.3589   14.1839 Cl      1  UNL1       -0.0822
     12 C          65.3720   92.6465   12.3328 C.ar    1  UNL1        0.0137
     13 C          64.3209   91.7047   11.8250 C.ar    1  UNL1        0.0306
     14 C          63.8965   90.5334   12.6603 C.ar    1  UNL1        0.1416
     15 F          62.8454   89.5915   12.1524 F       1  UNL1       -0.2041
     16 N          64.3576   85.1725   14.8043 N.pl3   1  UNL1       -0.3141
     17 H          65.0510   84.6634   15.2831 H       1  UNL1        0.1520
     18 C          63.6426   84.5538   13.6399 C.2     1  UNL1        0.0571
     19 C          63.2657   85.3964   12.4575 C.2     1  UNL1        0.0332
     20 C          62.5507   84.7778   11.2931 C.2     1  UNL1        0.0996
     21 N          62.2125   83.3164   11.3109 N.2     1  UNL1       -0.2441
     22 C          62.5893   82.4739   12.4933 C.2     1  UNL1        0.1094
     23 C          62.3896   81.0176   12.7925 C.2     1  UNL1        0.1387
     24 N          62.9812   80.7364   14.1419 N.2     1  UNL1       -0.1491
     25 N          63.5466   82.0187   14.6767 N.2     1  UNL1       -0.1644
     26 C          63.3044   83.0926   13.6578 C.3     1  UNL1        0.2016
@<TRIPOS>BOND
     1     1     2    1
     2     2     3   ar
     3     3     4   ar
     4     4     5   ar
     5     5     8    1
     6     8     9   ar
     7     9    10   ar
     8    10    11    1
     9    10    12   ar
    10    12    13   ar
    11    13    14   ar
    12    14    15    1
    13     5     6   ar
    14     6     7   ar
    15     7    16    1
    16    16    18    1
    17    18    19    2
    18    19    20    1
    19    20    21    2
    20    21    22    1
    21    22    23    2
    22    23    24    1
    23    24    25    2
    24    25    26    1
    25     7     2   ar
    26    26    18    1
    27    14     8   ar
    28    26    22    1
    29    16    17    1
@<TRIPOS>MOLECULE
*****
 26 29 0 0 0
SMALL
GASTEIGER

@<TRIPOS>ATOM
      1 C          60.8032   88.9322    8.6581 C.3     1  UNL1        0.0340
      2 C          61.3249   87.8200    9.5189 C.ar    1  UNL1        0.0107
      3 C          61.5199   86.4507    8.9384 C.ar    1  UNL1        0.0958
      4 N          62.0417   85.3385    9.7992 N.ar    1  UNL1       -0.2440
      5 C          62.3684   85.5956   11.2403 C.ar    1  UNL1        0.0847
      6 C          62.1734   86.9650   11.8209 C.ar    1  UNL1        0.0335
      7 C          61.6517   88.0771   10.9601 C.ar    1  UNL1        0.0471
      8 C          62.8901   84.4835   12.1011 C.ar    1  UNL1        0.0460
      9 C          62.5635   83.0586   11.7650 C.ar    1  UNL1        0.0151
     10 C          63.0853   81.9464   12.6258 C.ar    1  UNL1        0.0579
     11 CL         62.7587   80.5215   12.2897 Cl      1  UNL1       -0.0822
     12 C          63.9336   82.2593   13.8226 C.ar    1  UNL1        0.0137
     13 C          64.2602   83.6841   14.1587 C.ar    1  UNL1        0.0306
     14 C          63.7385   84.7962   13.2979 C.ar    1  UNL1        0.1416
     15 F          64.0651   86.2211   13.6340 F       1  UNL1       -0.2041
     16 N          61.4567   89.4464   11.5406 N.pl3   1  UNL1       -0.3141
     17 H          60.5485   89.7768   11.7283 H       1  UNL1        0.1520
     18 C          62.6456   90.3124   11.8352 C.2     1  UNL1        0.0571
     19 C          63.3247   91.0571   10.7242 C.2     1  UNL1        0.0332
     20 C          64.5134   91.9230   11.0187 C.2     1  UNL1        0.0996
     21 N          65.0232   92.0445   12.4242 N.2     1  UNL1       -0.2441
     22 C          64.3441   91.2998   13.5352 C.2     1  UNL1        0.1094
     23 C          64.6184   91.2252   15.0080 C.2     1  UNL1        0.1387
     24 N          63.5991   90.3131   15.6237 N.2     1  UNL1       -0.1491
     25 N          62.6948   89.8240   14.5315 N.2     1  UNL1       -0.1644
     26 C          63.1552   90.4338   13.2407 C.3     1  UNL1        0.2016
@<TRIPOS>BOND
     1     1     2    1
     2     2     3   ar
     3     3     4   ar
     4     4     5   ar
     5     5     8    1
     6     8     9   ar
     7     9    10   ar
     8    10    11    1
     9    10    12   ar
    10    12    13   ar
    11    13    14   ar
    12    14    15    1
    13     5     6   ar
    14     6     7   ar
    15     7    16    1
    16    16    18    1
    17    18    19    2
    18    19    20    1
    19    20    21    2
    20    21    22    1
    21    22    23    2
    22    23    24    1
    23    24    25    2
    24    25    26    1
    25     7     2   ar
    26    26    18    1
    27    14     8   ar
    28    26    22    1
    29    16    17    1
@<TRIPOS>MOLECULE
*****
 26 29 0 0 0
SMALL
GASTEIGER

@<TRIPOS>ATOM
      1 C          60.1581   90.0604    9.7089 C.3     1  UNL1        0.0340
      2 C          60.8505   88.7712   10.0384 C.ar    1  UNL1        0.0107
      3 C          60.8110   87.6290    9.0669 C.ar    1  UNL1        0.0958
      4 N          61.5033   86.3397    9.3964 N.ar    1  UNL1       -0.2440
      5 C          62.2352   86.1927   10.6974 C.ar    1  UNL1        0.0847
      6 C          62.2747   87.3349   11.6690 C.ar    1  UNL1        0.0335
      7 C          61.5824   88.6241   11.3395 C.ar    1  UNL1        0.0471
      8 C          62.9275   84.9035   11.0269 C.ar    1  UNL1        0.0460
      9 C          63.0324   84.4518   12.4535 C.ar    1  UNL1        0.0151
     10 C          63.7248   83.1625   12.7830 C.ar    1  UNL1        0.0579
     11 CL         63.8297   82.7109   14.2094 Cl      1  UNL1       -0.0822
     12 C          64.3122   82.3251   11.6859 C.ar    1  UNL1        0.0137
     13 C          64.2073   82.7768   10.2595 C.ar    1  UNL1        0.0306
     14 C          63.5150   84.0660    9.9299 C.ar    1  UNL1        0.1416
     15 F          63.4101   84.5176    8.5034 F       1  UNL1       -0.2041
     16 N          61.6219   89.7662   12.3110 N.pl3   1  UNL1       -0.3141
     17 H          60.7868   90.2134   12.5793 H       1  UNL1        0.1520
     18 C          62.9337   90.2271   12.8739 C.2     1  UNL1        0.0571
     19 C          63.3693   89.7677   14.2337 C.2     1  UNL1        0.0332
     20 C          64.6810   90.2285   14.7965 C.2     1  UNL1        0.0996
     21 N          65.5573   91.1488   13.9995 N.2     1  UNL1       -0.2441
     22 C          65.1218   91.6082   12.6396 C.2     1  UNL1        0.1094
     23 C          65.7691   92.5082   11.6292 C.2     1  UNL1        0.1387
     24 N          64.8574   92.6035   10.4419 N.2     1  UNL1       -0.1491
     25 N          63.6466   91.7625   10.7185 N.2     1  UNL1       -0.1644
     26 C          63.8099   91.1473   12.0768 C.3     1  UNL1        0.2016
@<TRIPOS>BOND
     1     1     2    1
     2     2     3   ar
     3     3     4   ar
     4     4     5   ar
     5     5     8    1
     6     8     9   ar
     7     9    10   ar
     8    10    11    1
     9    10    12   ar
    10    12    13   ar
    11    13    14   ar
    12    14    15    1
    13     5     6   ar
    14     6     7   ar
    15     7    16    1
    16    16    18    1
    17    18    19    2
    18    19    20    1
    19    20    21    2
    20    21    22    1
    21    22    23    2
    22    23    24    1
    23    24    25    2
    24    25    26    1
    25     7     2   ar
    26    26    18    1
    27    14     8   ar
    28    26    22    1
    29    16    17    1
