@<TRIPOS>MOLECULE
*****
 34 38 0 0 0
SMALL
GASTEIGER

@<TRIPOS>ATOM
      1 O          60.2515   89.4680   12.1463 O.2     1  UNL1       -0.2733
      2 C          61.2360   89.1886   11.0497 C.2     1  UNL1        0.2408
      3 N          62.5263   89.9513   10.9879 N.am    1  UNL1       -0.2990
      4 H          63.1725   89.7679   10.2682 H       1  UNL1        0.1498
      5 C          60.9304   88.1467   10.0148 C.3     1  UNL1        0.1518
      6 C          60.0357   88.3228    8.8238 C.3     1  UNL1        0.0309
      7 C          60.0181   87.0307    8.0621 C.3     1  UNL1        0.0220
      8 C          60.1953   85.6410    7.5261 C.3     1  UNL1        0.0215
      9 C          60.9020   86.0560    8.7825 C.3     1  UNL1        0.0759
     10 N          61.4658   86.7458    9.9893 N.am    1  UNL1       -0.2724
     11 C          62.4008   86.1407   10.9941 C.2     1  UNL1        0.2571
     12 O          62.8835   86.9573   12.1561 O.2     1  UNL1       -0.2719
     13 C          62.8531   84.7192   10.8370 C.3     1  UNL1        0.2096
     14 O          63.4791   84.2693    9.5502 O.3     1  UNL1       -0.3719
     15 H          63.5159   85.0147    8.9306 H       1  UNL1        0.2114
     16 C          62.6795   83.7477   11.9666 C.ar    1  UNL1        0.0131
     17 C          62.6092   84.2454   13.3798 C.ar    1  UNL1       -0.0015
     18 C          62.4356   83.2738   14.5093 C.ar    1  UNL1       -0.0002
     19 C          62.3322   81.8045   14.2256 C.ar    1  UNL1       -0.0000
     20 C          62.4025   81.3068   12.8123 C.ar    1  UNL1       -0.0002
     21 C          62.5761   82.2784   11.6828 C.ar    1  UNL1       -0.0015
     22 C          62.8319   90.9932   12.0228 C.3     1  UNL1        0.1179
     23 C          64.2375   91.4871   12.1975 C.ar    1  UNL1        0.0161
     24 C          64.9283   92.1973   11.0713 C.ar    1  UNL1        0.0103
     25 C          66.3338   92.6912   11.2461 C.ar    1  UNL1        0.0575
     26 CL         67.0247   93.4015   10.1199 Cl      1  UNL1       -0.0823
     27 C          67.0485   92.4749   12.5470 C.ar    1  UNL1        0.0129
     28 C          66.3577   91.7646   13.6731 C.ar    1  UNL1        0.0199
     29 C          64.9522   91.2707   13.4984 C.ar    1  UNL1        0.0839
     30 N          64.2613   90.5604   14.6246 N.ar    1  UNL1       -0.1889
     31 C          64.1205   89.0747   14.7755 C.ar    1  UNL1        0.2258
     32 N          63.3621   88.8072   16.0417 N.ar    1  UNL1       -0.1045
     33 N          63.0343   90.1277   16.6734 N.ar    1  UNL1       -0.0222
     34 N          63.5901   91.2112   15.7976 N.ar    1  UNL1       -0.0385
@<TRIPOS>BOND
     1     1     2    2
     2     2     3   am
     3     3    22    1
     4    22    23    1
     5    23    24   ar
     6    24    25   ar
     7    25    26    1
     8    25    27   ar
     9    27    28   ar
    10    28    29   ar
    11    29    30    1
    12    30    31   ar
    13    31    32   ar
    14    32    33   ar
    15    33    34   ar
    16     5     2    1
    17     5     6    1
    18     7     6    1
    19     7     8    1
    20     9     8    1
    21     9    10    1
    22    10    11   am
    23    11    12    2
    24    11    13    1
    25    13    14    1
    26    13    16    1
    27    16    17   ar
    28    17    18   ar
    29    18    19   ar
    30    19    20   ar
    31    20    21   ar
    32    29    23   ar
    33    34    30   ar
    34    10     5    1
    35    21    16   ar
    36     9     7    1
    37     3     4    1
    38    14    15    1
@<TRIPOS>MOLECULE
*****
 34 38 0 0 0
SMALL
GASTEIGER

@<TRIPOS>ATOM
      1 O          59.8883   89.1586   12.1865 O.2     1  UNL1       -0.2733
      2 C          61.0453   88.8081   11.2986 C.2     1  UNL1        0.2408
      3 N          62.3937   89.4159   11.5487 N.am    1  UNL1       -0.2990
      4 H          63.1531   89.1859   10.9659 H       1  UNL1        0.1498
      5 C          60.8540   87.8499   10.1606 C.3     1  UNL1        0.1518
      6 C          60.0093   88.0840    8.9433 C.3     1  UNL1        0.0309
      7 C          60.1070   86.8681    8.0704 C.3     1  UNL1        0.0220
      8 C          60.3939   85.5454    7.4237 C.3     1  UNL1        0.0215
      9 C          61.0121   85.8825    8.7482 C.3     1  UNL1        0.0759
     10 N          61.4738   86.4893   10.0399 N.am    1  UNL1       -0.2724
     11 C          62.3937   85.8480   11.0362 C.2     1  UNL1        0.2571
     12 O          62.7691   86.5804   12.2902 O.2     1  UNL1       -0.2719
     13 C          62.9384   84.4744   10.7784 C.3     1  UNL1        0.2096
     14 O          63.6225   84.1706    9.4785 O.3     1  UNL1       -0.3719
     15 H          63.6274   84.9653    8.9223 H       1  UNL1        0.2114
     16 C          62.7989   83.4045   11.8204 C.ar    1  UNL1        0.0131
     17 C          62.9097   81.9600   11.4319 C.ar    1  UNL1       -0.0015
     18 C          62.7702   80.8902   12.4740 C.ar    1  UNL1       -0.0002
     19 C          62.5199   81.2650   13.9047 C.ar    1  UNL1       -0.0000
     20 C          62.4090   82.7095   14.2933 C.ar    1  UNL1       -0.0002
     21 C          62.5485   83.7793   13.2511 C.ar    1  UNL1       -0.0015
     22 C          62.5851   90.3742   12.6867 C.3     1  UNL1        0.1179
     23 C          63.9509   90.9150   12.9903 C.ar    1  UNL1        0.0161
     24 C          64.5597   91.9574   12.1000 C.ar    1  UNL1        0.0103
     25 C          65.9255   92.4982   12.4035 C.ar    1  UNL1        0.0575
     26 CL         66.5344   93.5406   11.5132 Cl      1  UNL1       -0.0823
     27 C          66.6824   91.9965   13.5974 C.ar    1  UNL1        0.0129
     28 C          66.0736   90.9541   14.4878 C.ar    1  UNL1        0.0199
     29 C          64.7079   90.4134   14.1842 C.ar    1  UNL1        0.0839
     30 N          64.0990   89.3709   15.0745 N.ar    1  UNL1       -0.1889
     31 C          63.2809   89.6306   16.3046 C.ar    1  UNL1        0.2258
     32 N          62.8776   88.3060   16.8814 N.ar    1  UNL1       -0.1045
     33 N          63.4465   87.2275   16.0076 N.ar    1  UNL1       -0.0222
     34 N          64.2013   87.8857   14.8909 N.ar    1  UNL1       -0.0385
@<TRIPOS>BOND
     1     1     2    2
     2     2     3   am
     3     3    22    1
     4    22    23    1
     5    23    24   ar
     6    24    25   ar
     7    25    26    1
     8    25    27   ar
     9    27    28   ar
    10    28    29   ar
    11    29    30    1
    12    30    31   ar
    13    31    32   ar
    14    32    33   ar
    15    33    34   ar
    16     5     2    1
    17     5     6    1
    18     7     6    1
    19     7     8    1
    20     9     8    1
    21     9    10    1
    22    10    11   am
    23    11    12    2
    24    11    13    1
    25    13    14    1
    26    13    16    1
    27    16    17   ar
    28    17    18   ar
    29    18    19   ar
    30    19    20   ar
    31    20    21   ar
    32    29    23   ar
    33    34    30   ar
    34    10     5    1
    35    21    16   ar
    36     9     7    1
    37     3     4    1
    38    14    15    1
@<TRIPOS>MOLECULE
*****
 34 38 0 0 0
SMALL
GASTEIGER

@<TRIPOS>ATOM
      1 O          61.9903   85.3081   12.4313 O.2     1  UNL1       -0.2733
      2 C          62.3400   85.4893   10.9839 C.2     1  UNL1        0.2408
      3 N          63.4453   84.6802   10.3724 N.am    1  UNL1       -0.2990
      4 H          63.6748   84.7991    9.4224 H       1  UNL1        0.1498
      5 C          61.5844   86.4794   10.1480 C.3     1  UNL1        0.1518
      6 C          60.7200   86.1571    8.9653 C.3     1  UNL1        0.0309
      7 C          60.1619   87.4442    8.4344 C.3     1  UNL1        0.0220
      8 C          59.7674   88.8607    8.1378 C.3     1  UNL1        0.0215
      9 C          60.6816   88.5621    9.2890 C.3     1  UNL1        0.0759
     10 N          61.5607   87.9658   10.3481 N.am    1  UNL1       -0.2724
     11 C          62.2883   88.7231   11.4191 C.2     1  UNL1        0.2571
     12 O          63.1354   87.9870   12.4144 O.2     1  UNL1       -0.2719
     13 C          62.1690   90.2164   11.4949 C.3     1  UNL1        0.2096
     14 O          60.8184   90.8653   11.4246 O.3     1  UNL1       -0.3719
     15 H          60.1360   90.1823   11.3313 H       1  UNL1        0.2114
     16 C          63.4001   91.0608   11.6411 C.ar    1  UNL1        0.0131
     17 C          64.0610   91.1976   12.9806 C.ar    1  UNL1       -0.0015
     18 C          65.2922   92.0420   13.1267 C.ar    1  UNL1       -0.0002
     19 C          65.8623   92.7495   11.9332 C.ar    1  UNL1       -0.0000
     20 C          65.2013   92.6127   10.5937 C.ar    1  UNL1       -0.0002
     21 C          63.9702   91.7683   10.4476 C.ar    1  UNL1       -0.0015
     22 C          64.2008   83.6901   11.2082 C.3     1  UNL1        0.1179
     23 C          63.6164   82.3351   11.4773 C.ar    1  UNL1        0.0161
     24 C          63.4777   81.3429   10.3610 C.ar    1  UNL1        0.0103
     25 C          62.8933   79.9880   10.6301 C.ar    1  UNL1        0.0575
     26 CL         62.7546   78.9957    9.5137 Cl      1  UNL1       -0.0823
     27 C          62.4475   79.6251   12.0156 C.ar    1  UNL1        0.0129
     28 C          62.5862   80.6173   13.1320 C.ar    1  UNL1        0.0199
     29 C          63.1706   81.9722   12.8629 C.ar    1  UNL1        0.0839
     30 N          63.3093   82.9645   13.9793 N.ar    1  UNL1       -0.1889
     31 C          62.2597   83.2986   14.9974 C.ar    1  UNL1        0.2258
     32 N          62.8237   84.3374   15.9209 N.ar    1  UNL1       -0.1045
     33 N          64.2220   84.6453   15.4735 N.ar    1  UNL1       -0.0222
     34 N          64.5221   83.7967   14.2736 N.ar    1  UNL1       -0.0385
@<TRIPOS>BOND
     1     1     2    2
     2     2     3   am
     3     3    22    1
     4    22    23    1
     5    23    24   ar
     6    24    25   ar
     7    25    26    1
     8    25    27   ar
     9    27    28   ar
    10    28    29   ar
    11    29    30    1
    12    30    31   ar
    13    31    32   ar
    14    32    33   ar
    15    33    34   ar
    16     5     2    1
    17     5     6    1
    18     7     6    1
    19     7     8    1
    20     9     8    1
    21     9    10    1
    22    10    11   am
    23    11    12    2
    24    11    13    1
    25    13    14    1
    26    13    16    1
    27    16    17   ar
    28    17    18   ar
    29    18    19   ar
    30    19    20   ar
    31    20    21   ar
    32    29    23   ar
    33    34    30   ar
    34    10     5    1
    35    21    16   ar
    36     9     7    1
    37     3     4    1
    38    14    15    1
@<TRIPOS>MOLECULE
*****
 34 38 0 0 0
SMALL
GASTEIGER

@<TRIPOS>ATOM
      1 O          60.5843   90.5371   11.4294 O.2     1  UNL1       -0.2733
      2 C          61.4826   89.9092   10.4053 C.2     1  UNL1        0.2408
      3 N          62.8824   90.4168   10.2233 N.am    1  UNL1       -0.2990
      4 H          63.4719   90.0047    9.5511 H       1  UNL1        0.1498
      5 C          60.9812   88.7737    9.5632 C.3     1  UNL1        0.1518
      6 C          59.9627   88.8721    8.4663 C.3     1  UNL1        0.0309
      7 C          59.7623   87.4996    7.8953 C.3     1  UNL1        0.0220
      8 C          59.7753   86.0429    7.5380 C.3     1  UNL1        0.0215
      9 C          60.6569   86.5529    8.6393 C.3     1  UNL1        0.0759
     10 N          61.4102   87.3403    9.6701 N.am    1  UNL1       -0.2724
     11 C          62.4159   86.7908   10.6378 C.2     1  UNL1        0.2571
     12 O          63.0923   87.7047   11.6162 O.2     1  UNL1       -0.2719
     13 C          62.7452   85.3274   10.6273 C.3     1  UNL1        0.2096
     14 O          63.1653   84.6625    9.3501 O.3     1  UNL1       -0.3719
     15 H          63.1719   85.3153    8.6326 H       1  UNL1        0.2114
     16 C          62.6545   84.5291   11.8939 C.ar    1  UNL1        0.0131
     17 C          62.7428   85.2186   13.2231 C.ar    1  UNL1       -0.0015
     18 C          62.6521   84.4202   14.4897 C.ar    1  UNL1       -0.0002
     19 C          62.4729   82.9323   14.4271 C.ar    1  UNL1       -0.0000
     20 C          62.3845   82.2427   13.0979 C.ar    1  UNL1       -0.0002
     21 C          62.4753   83.0411   11.8313 C.ar    1  UNL1       -0.0015
     22 C          63.3838   91.5524   11.0653 C.3     1  UNL1        0.1179
     23 C          64.0778   91.2725   12.3654 C.ar    1  UNL1        0.0161
     24 C          63.4420   90.3630   13.3745 C.ar    1  UNL1        0.0103
     25 C          64.1360   90.0832   14.6744 C.ar    1  UNL1        0.0575
     26 CL         63.5001   89.1736   15.6836 Cl      1  UNL1       -0.0823
     27 C          65.4660   90.7130   14.9653 C.ar    1  UNL1        0.0129
     28 C          66.1019   91.6225   13.9562 C.ar    1  UNL1        0.0199
     29 C          65.4078   91.9023   12.6562 C.ar    1  UNL1        0.0839
     30 N          66.0437   92.8119   11.6471 N.ar    1  UNL1       -0.1889
     31 C          66.1311   94.3065   11.7387 C.ar    1  UNL1        0.2258
     32 N          66.8452   94.8048   10.5174 N.ar    1  UNL1       -0.1045
     33 N          67.1992   93.6181    9.6708 N.ar    1  UNL1       -0.0222
     34 N          66.7038   92.3865   10.3690 N.ar    1  UNL1       -0.0385
@<TRIPOS>BOND
     1     1     2    2
     2     2     3   am
     3     3    22    1
     4    22    23    1
     5    23    24   ar
     6    24    25   ar
     7    25    26    1
     8    25    27   ar
     9    27    28   ar
    10    28    29   ar
    11    29    30    1
    12    30    31   ar
    13    31    32   ar
    14    32    33   ar
    15    33    34   ar
    16     5     2    1
    17     5     6    1
    18     7     6    1
    19     7     8    1
    20     9     8    1
    21     9    10    1
    22    10    11   am
    23    11    12    2
    24    11    13    1
    25    13    14    1
    26    13    16    1
    27    16    17   ar
    28    17    18   ar
    29    18    19   ar
    30    19    20   ar
    31    20    21   ar
    32    29    23   ar
    33    34    30   ar
    34    10     5    1
    35    21    16   ar
    36     9     7    1
    37     3     4    1
    38    14    15    1
@<TRIPOS>MOLECULE
*****
 34 38 0 0 0
SMALL
GASTEIGER

@<TRIPOS>ATOM
      1 O          60.9120   88.9266   12.1795 O.2     1  UNL1       -0.2733
      2 C          61.8847   88.8756   11.0387 C.2     1  UNL1        0.2408
      3 N          62.9696   89.9060   10.9315 N.am    1  UNL1       -0.2990
      4 H          63.6080   89.8726   10.1828 H       1  UNL1        0.1498
      5 C          61.7725   87.7943   10.0052 C.3     1  UNL1        0.1518
      6 C          62.5353   86.5027    9.9941 C.3     1  UNL1        0.0309
      7 C          62.1121   85.7249    8.7834 C.3     1  UNL1        0.0220
      8 C          61.5028   85.1938    7.5198 C.3     1  UNL1        0.0215
      9 C          61.0878   86.5358    8.0463 C.3     1  UNL1        0.0759
     10 N          60.8780   87.8147    8.8014 N.am    1  UNL1       -0.2724
     11 C          59.9385   88.9200    8.4196 C.2     1  UNL1        0.2571
     12 O          59.8352   90.1463    9.2773 O.2     1  UNL1       -0.2719
     13 C          59.1022   88.7991    7.1803 C.3     1  UNL1        0.2096
     14 O          58.2978   87.5567    6.9366 O.3     1  UNL1       -0.3719
     15 H          58.4300   86.9367    7.6708 H       1  UNL1        0.2114
     16 C          59.0703   89.9205    6.1846 C.ar    1  UNL1        0.0131
     17 C          60.3459   90.4108    5.5661 C.ar    1  UNL1       -0.0015
     18 C          60.3139   91.5322    4.5704 C.ar    1  UNL1       -0.0002
     19 C          59.0065   92.1634    4.1933 C.ar    1  UNL1       -0.0000
     20 C          57.7309   91.6731    4.8119 C.ar    1  UNL1       -0.0002
     21 C          57.7629   90.5516    5.8075 C.ar    1  UNL1       -0.0015
     22 C          63.0817   90.9873   11.9650 C.3     1  UNL1        0.1179
     23 C          64.4185   91.5939   12.2738 C.ar    1  UNL1        0.0161
     24 C          65.1325   92.4048   11.2333 C.ar    1  UNL1        0.0103
     25 C          66.4692   93.0113   11.5422 C.ar    1  UNL1        0.0575
     26 CL         67.1833   93.8222   10.5017 Cl      1  UNL1       -0.0823
     27 C          67.0917   92.8070   12.8915 C.ar    1  UNL1        0.0129
     28 C          66.3777   91.9962   13.9320 C.ar    1  UNL1        0.0199
     29 C          65.0410   91.3897   13.6231 C.ar    1  UNL1        0.0839
     30 N          64.3269   90.5788   14.6636 N.ar    1  UNL1       -0.1889
     31 C          64.2293   89.0825   14.7016 C.ar    1  UNL1        0.2258
     32 N          63.4271   88.7008   15.9103 N.ar    1  UNL1       -0.1045
     33 N          63.0288   89.9613   16.6192 N.ar    1  UNL1       -0.0222
     34 N          63.5849   91.1219   15.8487 N.ar    1  UNL1       -0.0385
@<TRIPOS>BOND
     1     1     2    2
     2     2     3   am
     3     3    22    1
     4    22    23    1
     5    23    24   ar
     6    24    25   ar
     7    25    26    1
     8    25    27   ar
     9    27    28   ar
    10    28    29   ar
    11    29    30    1
    12    30    31   ar
    13    31    32   ar
    14    32    33   ar
    15    33    34   ar
    16     5     2    1
    17     5     6    1
    18     7     6    1
    19     7     8    1
    20     9     8    1
    21     9    10    1
    22    10    11   am
    23    11    12    2
    24    11    13    1
    25    13    14    1
    26    13    16    1
    27    16    17   ar
    28    17    18   ar
    29    18    19   ar
    30    19    20   ar
    31    20    21   ar
    32    29    23   ar
    33    34    30   ar
    34    10     5    1
    35    21    16   ar
    36     9     7    1
    37     3     4    1
    38    14    15    1
@<TRIPOS>MOLECULE
*****
 34 38 0 0 0
SMALL
GASTEIGER

@<TRIPOS>ATOM
      1 O          60.8438   88.4066   11.9294 O.2     1  UNL1       -0.2733
      2 C          62.1947   88.0954   11.3563 C.2     1  UNL1        0.2408
      3 N          63.2854   89.1241   11.4055 N.am    1  UNL1       -0.2990
      4 H          64.1719   88.9198   11.0293 H       1  UNL1        0.1498
      5 C          62.4548   86.7557   10.7339 C.3     1  UNL1        0.1518
      6 C          62.1345   86.3621    9.3223 C.3     1  UNL1        0.0309
      7 C          62.5626   84.9375    9.1298 C.3     1  UNL1        0.0220
      8 C          63.0804   83.5337    9.2371 C.3     1  UNL1        0.0215
      9 C          63.1476   84.4506   10.4224 C.3     1  UNL1        0.0759
     10 N          63.0809   85.5743   11.4138 N.am    1  UNL1       -0.2724
     11 C          63.5569   85.5253   12.8354 C.2     1  UNL1        0.2571
     12 O          63.4240   86.7345   13.7129 O.2     1  UNL1       -0.2719
     13 C          64.1657   84.2669   13.3796 C.3     1  UNL1        0.2096
     14 O          65.5755   84.2765   13.8917 O.3     1  UNL1       -0.3719
     15 H          65.9470   85.1678   13.7992 H       1  UNL1        0.2114
     16 C          63.3646   82.9992   13.4117 C.ar    1  UNL1        0.0131
     17 C          63.7062   81.8724   12.4823 C.ar    1  UNL1       -0.0015
     18 C          62.9052   80.6047   12.5145 C.ar    1  UNL1       -0.0002
     19 C          61.7624   80.4637   13.4759 C.ar    1  UNL1       -0.0000
     20 C          61.4208   81.5905   14.4052 C.ar    1  UNL1       -0.0002
     21 C          62.2219   82.8582   14.3731 C.ar    1  UNL1       -0.0015
     22 C          63.0252   90.4638   12.0279 C.3     1  UNL1        0.1179
     23 C          64.1484   91.4438   12.1954 C.ar    1  UNL1        0.0161
     24 C          64.6942   92.1702   11.0019 C.ar    1  UNL1        0.0103
     25 C          65.8174   93.1502   11.1694 C.ar    1  UNL1        0.0575
     26 CL         66.3633   93.8766    9.9759 Cl      1  UNL1       -0.0823
     27 C          66.3948   93.4038   12.5304 C.ar    1  UNL1        0.0129
     28 C          65.8490   92.6774   13.7239 C.ar    1  UNL1        0.0199
     29 C          64.7258   91.6975   13.5564 C.ar    1  UNL1        0.0839
     30 N          64.1800   90.9710   14.7499 N.ar    1  UNL1       -0.1889
     31 C          64.1633   89.4839   14.9453 C.ar    1  UNL1        0.2258
     32 N          63.5280   89.1980   16.2737 N.ar    1  UNL1       -0.1045
     33 N          63.1520   90.5085   16.8993 N.ar    1  UNL1       -0.0222
     34 N          63.5549   91.6043   15.9576 N.ar    1  UNL1       -0.0385
@<TRIPOS>BOND
     1     1     2    2
     2     2     3   am
     3     3    22    1
     4    22    23    1
     5    23    24   ar
     6    24    25   ar
     7    25    26    1
     8    25    27   ar
     9    27    28   ar
    10    28    29   ar
    11    29    30    1
    12    30    31   ar
    13    31    32   ar
    14    32    33   ar
    15    33    34   ar
    16     5     2    1
    17     5     6    1
    18     7     6    1
    19     7     8    1
    20     9     8    1
    21     9    10    1
    22    10    11   am
    23    11    12    2
    24    11    13    1
    25    13    14    1
    26    13    16    1
    27    16    17   ar
    28    17    18   ar
    29    18    19   ar
    30    19    20   ar
    31    20    21   ar
    32    29    23   ar
    33    34    30   ar
    34    10     5    1
    35    21    16   ar
    36     9     7    1
    37     3     4    1
    38    14    15    1
