@<TRIPOS>MOLECULE
*****
 36 39 0 0 0
SMALL
GASTEIGER

@<TRIPOS>ATOM
      1 C          64.0880   89.7338   12.4678 C.ar    1  UNL1       -0.0223
      2 C          64.3585   88.9193   13.6980 C.ar    1  UNL1       -0.0030
      3 C          63.8012   87.5317   13.8163 C.ar    1  UNL1        0.0143
      4 C          62.9733   86.9587   12.7044 C.ar    1  UNL1        0.0502
      5 C          62.7028   87.7732   11.4743 C.ar    1  UNL1        0.0089
      6 C          63.2601   89.1608   11.3560 C.ar    1  UNL1       -0.0034
      7 N          65.7600   93.8966   12.1129 N.3     1  UNL1       -0.2712
      8 C          65.9614   93.1126   13.3757 C.3     1  UNL1        0.0725
      9 C          65.4041   91.7250   13.4940 C.3     1  UNL1        0.0217
     10 C          64.6454   91.1214   12.3495 C.3     1  UNL1        0.0251
     11 C          64.4440   91.9054   11.0867 C.3     1  UNL1        0.0217
     12 C          65.0013   93.2930   10.9684 C.3     1  UNL1        0.0725
     13 C          66.3174   95.2841   11.9946 C.3     1  UNL1        0.0977
     14 C          65.8396   96.1936   10.9016 C.3     1  UNL1        0.1681
     15 C          67.1130   96.0753    8.1879 C.3     1  UNL1        0.1761
     16 S          66.4763   96.1344    9.5448 S.O2    1  UNL1       -0.0068
     17 O          65.2975   96.8548    8.9603 O.2     1  UNL1       -0.1729
     18 O          67.6551   95.4141   10.1293 O.2     1  UNL1       -0.1729
     19 C          61.8749   87.2002   10.3624 C.2     1  UNL1       -0.0253
     20 C          62.4903   86.2417    9.3864 C.2     1  UNL1       -0.0303
     21 C          61.6625   85.6687    8.2745 C.3     1  UNL1        0.0257
     22 C          60.2192   86.0541    8.1386 C.3     1  UNL1        0.0050
     23 C          59.6038   87.0126    9.1146 C.3     1  UNL1        0.0050
     24 C          60.4317   87.5856   10.2265 C.3     1  UNL1        0.0261
     25 N          62.4160   85.5711   12.8227 N.am    1  UNL1       -0.2779
     26 C          63.3042   84.4399   13.2485 C.2     1  UNL1        0.2837
     27 O          64.7498   84.6962   13.5560 O.2     1  UNL1       -0.2665
     28 H          61.4672   85.4029   12.6209 H       1  UNL1        0.1553
     29 C          62.7468   83.0523   13.3668 C.ar    1  UNL1        0.1959
     30 N          61.3912   82.6888   13.8960 N.ar    1  UNL1       -0.2123
     31 C          61.2538   81.1964   13.8329 C.ar    1  UNL1        0.1678
     32 C          62.5245   80.6375   13.2648 C.ar    1  UNL1        0.1036
     33 N          63.4474   81.7845   12.9767 N.ar    1  UNL1       -0.3319
     34 H          64.3536   81.7171   12.5980 H       1  UNL1        0.1676
     35 C          60.0560   80.4023   14.2626 C.1     1  UNL1        0.1214
     36 N          58.8581   79.6083   14.6922 N.1     1  UNL1       -0.1892
@<TRIPOS>BOND
     1    15    16    1
     2    16    17    2
     3    16    18    2
     4    16    14    1
     5    14    13    1
     6    13     7    1
     7     7     8    1
     8     8     9    1
     9     9    10    1
    10    10     1    1
    11     1     2   ar
    12     2     3   ar
    13     3     4   ar
    14     4    25    1
    15    25    26   am
    16    26    27    2
    17    26    29    1
    18    29    30   ar
    19    30    31   ar
    20    31    35    1
    21    35    36    3
    22    31    32   ar
    23    32    33   ar
    24     4     5   ar
    25     5    19    1
    26    19    20    2
    27    20    21    1
    28    21    22    1
    29    22    23    1
    30    23    24    1
    31     5     6   ar
    32    10    11    1
    33    11    12    1
    34    12     7    1
    35     6     1   ar
    36    33    29   ar
    37    24    19    1
    38    25    28    1
    39    33    34    1
@<TRIPOS>MOLECULE
*****
 36 39 0 0 0
SMALL
GASTEIGER

@<TRIPOS>ATOM
      1 C          60.0070   89.2729    7.4690 C.ar    1  UNL1       -0.0223
      2 C          59.3727   87.9164    7.5564 C.ar    1  UNL1       -0.0030
      3 C          59.6640   87.0263    8.7281 C.ar    1  UNL1        0.0143
      4 C          60.5895   87.4927    9.8124 C.ar    1  UNL1        0.0502
      5 C          61.2238   88.8491    9.7251 C.ar    1  UNL1        0.0089
      6 C          60.9325   89.7393    8.5534 C.ar    1  UNL1       -0.0034
      7 N          59.1332   91.9433    3.9540 N.3     1  UNL1       -0.2712
      8 C          60.5488   91.5647    4.2747 C.3     1  UNL1        0.0725
      9 C          60.8400   90.6746    5.4464 C.3     1  UNL1        0.0217
     10 C          59.7157   90.1630    6.2973 C.3     1  UNL1        0.0251
     11 C          58.3002   90.5416    5.9766 C.3     1  UNL1        0.0217
     12 C          58.0089   91.4317    4.8049 C.3     1  UNL1        0.0725
     13 C          58.8420   92.8334    2.7823 C.3     1  UNL1        0.0977
     14 C          59.7641   92.8418    1.5993 C.3     1  UNL1        0.1681
     15 C          61.9634   94.8748    1.4260 C.3     1  UNL1        0.1761
     16 S          60.8637   93.8583    1.5126 S.O2    1  UNL1       -0.0068
     17 O          61.7353   92.8560    0.8156 O.2     1  UNL1       -0.1729
     18 O          59.9921   94.8605    2.2096 O.2     1  UNL1       -0.1729
     19 C          62.1494   89.3155   10.8095 C.2     1  UNL1       -0.0253
     20 C          62.6565   88.3428   11.8324 C.2     1  UNL1       -0.0303
     21 C          63.5821   88.8091   12.9168 C.3     1  UNL1        0.0257
     22 C          64.0005   90.2483   12.9782 C.3     1  UNL1        0.0050
     23 C          63.4933   91.2211   11.9553 C.3     1  UNL1        0.0050
     24 C          62.5677   90.7547   10.8709 C.3     1  UNL1        0.0261
     25 N          60.8808   86.6026   10.9841 N.am    1  UNL1       -0.2779
     26 C          61.9727   85.5781   10.8945 C.2     1  UNL1        0.2837
     27 O          62.7734   85.4436    9.6332 O.2     1  UNL1       -0.2665
     28 H          60.3552   86.6908   11.8119 H       1  UNL1        0.1553
     29 C          62.2639   84.6880   12.0662 C.ar    1  UNL1        0.1959
     30 N          62.4982   83.2074   12.0120 N.ar    1  UNL1       -0.2123
     31 C          62.7511   82.7265   13.4101 C.ar    1  UNL1        0.1678
     32 C          62.6732   83.9099   14.3285 C.ar    1  UNL1        0.1036
     33 N          62.3721   85.1222   13.4980 N.ar    1  UNL1       -0.3319
     34 H          62.2644   86.0414   13.8336 H       1  UNL1        0.1676
     35 C          63.0325   81.3108   13.8183 C.1     1  UNL1        0.1214
     36 N          63.3139   79.8951   14.2264 N.1     1  UNL1       -0.1892
@<TRIPOS>BOND
     1    15    16    1
     2    16    17    2
     3    16    18    2
     4    16    14    1
     5    14    13    1
     6    13     7    1
     7     7     8    1
     8     8     9    1
     9     9    10    1
    10    10     1    1
    11     1     2   ar
    12     2     3   ar
    13     3     4   ar
    14     4    25    1
    15    25    26   am
    16    26    27    2
    17    26    29    1
    18    29    30   ar
    19    30    31   ar
    20    31    35    1
    21    35    36    3
    22    31    32   ar
    23    32    33   ar
    24     4     5   ar
    25     5    19    1
    26    19    20    2
    27    20    21    1
    28    21    22    1
    29    22    23    1
    30    23    24    1
    31     5     6   ar
    32    10    11    1
    33    11    12    1
    34    12     7    1
    35     6     1   ar
    36    33    29   ar
    37    24    19    1
    38    25    28    1
    39    33    34    1
@<TRIPOS>MOLECULE
*****
 36 39 0 0 0
SMALL
GASTEIGER

@<TRIPOS>ATOM
      1 C          60.0063   89.2809    7.4143 C.ar    1  UNL1       -0.0223
      2 C          59.3794   87.9208    7.4973 C.ar    1  UNL1       -0.0030
      3 C          59.6704   87.0310    8.6693 C.ar    1  UNL1        0.0143
      4 C          60.5883   87.5014    9.7584 C.ar    1  UNL1        0.0502
      5 C          61.2152   88.8616    9.6754 C.ar    1  UNL1        0.0089
      6 C          60.9242   89.7513    8.5034 C.ar    1  UNL1       -0.0034
      7 N          59.1331   91.9501    3.8982 N.3     1  UNL1       -0.2712
      8 C          60.5448   91.5399    4.1961 C.3     1  UNL1        0.0725
      9 C          60.8359   90.6501    5.3681 C.3     1  UNL1        0.0217
     10 C          59.7152   90.1706    6.2423 C.3     1  UNL1        0.0251
     11 C          58.3035   90.5809    5.9444 C.3     1  UNL1        0.0217
     12 C          58.0125   91.4706    4.7724 C.3     1  UNL1        0.0725
     13 C          58.8421   92.8399    2.7262 C.3     1  UNL1        0.0977
     14 C          59.9294   93.1702    1.7471 C.3     1  UNL1        0.1681
     15 C          59.4918   92.7247   -1.1872 C.3     1  UNL1        0.1761
     16 S          59.7106   92.9475    0.2799 S.O2    1  UNL1       -0.0068
     17 O          60.8031   91.9196    0.2731 O.2     1  UNL1       -0.1729
     18 O          58.6181   93.9753    0.2868 O.2     1  UNL1       -0.1729
     19 C          62.1332   89.3321   10.7645 C.2     1  UNL1       -0.0253
     20 C          62.5639   90.7681   10.8141 C.2     1  UNL1       -0.0303
     21 C          63.4819   91.2386   11.9031 C.3     1  UNL1        0.0257
     22 C          63.9691   90.2731   12.9426 C.3     1  UNL1        0.0050
     23 C          63.5384   88.8371   12.8930 C.3     1  UNL1        0.0050
     24 C          62.6204   88.3666   11.8039 C.3     1  UNL1        0.0261
     25 N          60.8794   86.6117   10.9304 N.am    1  UNL1       -0.2779
     26 C          61.9645   85.5803   10.8379 C.2     1  UNL1        0.2837
     27 O          62.7587   85.4386    9.5732 O.2     1  UNL1       -0.2665
     28 H          60.3581   86.7047   11.7604 H       1  UNL1        0.1553
     29 C          62.2556   84.6906   12.0099 C.ar    1  UNL1        0.1959
     30 N          62.5069   83.2128   11.9541 N.ar    1  UNL1       -0.2123
     31 C          62.7531   82.7313   13.3532 C.ar    1  UNL1        0.1678
     32 C          62.6538   83.9115   14.2738 C.ar    1  UNL1        0.1036
     33 N          62.3463   85.1224   13.4436 N.ar    1  UNL1       -0.3319
     34 H          62.2254   86.0395   13.7805 H       1  UNL1        0.1676
     35 C          63.0468   81.3179   13.7604 C.1     1  UNL1        0.1214
     36 N          63.3407   79.9045   14.1675 N.1     1  UNL1       -0.1892
@<TRIPOS>BOND
     1    15    16    1
     2    16    17    2
     3    16    18    2
     4    16    14    1
     5    14    13    1
     6    13     7    1
     7     7     8    1
     8     8     9    1
     9     9    10    1
    10    10     1    1
    11     1     2   ar
    12     2     3   ar
    13     3     4   ar
    14     4    25    1
    15    25    26   am
    16    26    27    2
    17    26    29    1
    18    29    30   ar
    19    30    31   ar
    20    31    35    1
    21    35    36    3
    22    31    32   ar
    23    32    33   ar
    24     4     5   ar
    25     5    19    1
    26    19    20    2
    27    20    21    1
    28    21    22    1
    29    22    23    1
    30    23    24    1
    31     5     6   ar
    32    10    11    1
    33    11    12    1
    34    12     7    1
    35     6     1   ar
    36    33    29   ar
    37    24    19    1
    38    25    28    1
    39    33    34    1
@<TRIPOS>MOLECULE
*****
 36 39 0 0 0
SMALL
GASTEIGER

@<TRIPOS>ATOM
      1 C          54.0817   95.8488   -3.3181 C.ar    1  UNL1       -0.0223
      2 C          53.9420   95.6237   -1.8418 C.ar    1  UNL1       -0.0030
      3 C          55.1599   95.3720   -1.0030 C.ar    1  UNL1        0.0143
      4 C          56.5173   95.3455   -1.6406 C.ar    1  UNL1        0.0502
      5 C          56.6569   95.5707   -3.1169 C.ar    1  UNL1        0.0089
      6 C          55.4391   95.8224   -3.9557 C.ar    1  UNL1       -0.0034
      7 N          50.4282   96.6038   -5.8345 N.3     1  UNL1       -0.2712
      8 C          51.7872   96.5945   -6.4692 C.3     1  UNL1        0.0725
      9 C          53.0050   96.3429   -5.6304 C.3     1  UNL1        0.0217
     10 C          52.8638   96.1005   -4.1569 C.3     1  UNL1        0.0251
     11 C          51.5048   96.1098   -3.5222 C.3     1  UNL1        0.0217
     12 C          50.2870   96.3615   -4.3610 C.3     1  UNL1        0.0725
     13 C          49.2104   96.8555   -6.6733 C.3     1  UNL1        0.0977
     14 C          47.8674   96.3755   -6.2087 C.3     1  UNL1        0.1681
     15 C          46.5786   94.0123   -7.5331 C.3     1  UNL1        0.1761
     16 S          47.2230   95.1939   -6.8709 S.O2    1  UNL1       -0.0068
     17 O          46.2527   96.1082   -7.5583 O.2     1  UNL1       -0.1729
     18 O          48.1933   94.2795   -6.1835 O.2     1  UNL1       -0.1729
     19 C          58.0145   95.5442   -3.7546 C.2     1  UNL1       -0.0253
     20 C          58.5823   94.2496   -4.2562 C.2     1  UNL1       -0.0303
     21 C          59.9397   94.2231   -4.8938 C.3     1  UNL1        0.0257
     22 C          60.7294   95.4912   -5.0299 C.3     1  UNL1        0.0050
     23 C          60.1615   96.7858   -4.5283 C.3     1  UNL1        0.0050
     24 C          58.8040   96.8123   -3.8907 C.3     1  UNL1        0.0261
     25 N          57.7351   95.0938   -0.8018 N.am    1  UNL1       -0.2779
     26 C          58.0651   93.6995   -0.3580 C.2     1  UNL1        0.2837
     27 O          57.1773   92.5568   -0.7531 O.2     1  UNL1       -0.2665
     28 H          58.3178   95.8438   -0.5425 H       1  UNL1        0.1553
     29 C          59.2830   93.4479    0.4808 C.ar    1  UNL1        0.1959
     30 N          60.7060   93.5117    0.0106 N.ar    1  UNL1       -0.2123
     31 C          61.5941   93.1915    1.1763 C.ar    1  UNL1        0.1678
     32 C          60.7200   92.9297    2.3668 C.ar    1  UNL1        0.1036
     33 N          59.2916   93.0882    1.9370 N.ar    1  UNL1       -0.3319
     34 H          58.4990   92.9758    2.5101 H       1  UNL1        0.1676
     35 C          63.0931   93.1417    1.1551 C.1     1  UNL1        0.1214
     36 N          64.5921   93.0919    1.1339 N.1     1  UNL1       -0.1892
@<TRIPOS>BOND
     1    15    16    1
     2    16    17    2
     3    16    18    2
     4    16    14    1
     5    14    13    1
     6    13     7    1
     7     7     8    1
     8     8     9    1
     9     9    10    1
    10    10     1    1
    11     1     2   ar
    12     2     3   ar
    13     3     4   ar
    14     4    25    1
    15    25    26   am
    16    26    27    2
    17    26    29    1
    18    29    30   ar
    19    30    31   ar
    20    31    35    1
    21    35    36    3
    22    31    32   ar
    23    32    33   ar
    24     4     5   ar
    25     5    19    1
    26    19    20    2
    27    20    21    1
    28    21    22    1
    29    22    23    1
    30    23    24    1
    31     5     6   ar
    32    10    11    1
    33    11    12    1
    34    12     7    1
    35     6     1   ar
    36    33    29   ar
    37    24    19    1
    38    25    28    1
    39    33    34    1
