@<TRIPOS>MOLECULE
*****
 32 35 0 0 0
SMALL
GASTEIGER

@<TRIPOS>ATOM
      1 N          64.3093   91.5914   12.2692 N.ar    1  UNL1       -0.2570
      2 C          65.5521   92.4093   12.4600 C.ar    1  UNL1        0.1213
      3 C          66.1502   92.5569   13.8277 C.ar    1  UNL1        0.0935
      4 C          65.5055   91.8866   15.0046 C.ar    1  UNL1        0.2674
      5 O          66.1035   92.0342   16.3722 O.2     1  UNL1       -0.2667
      6 N          64.2626   91.0687   14.8137 N.ar    1  UNL1       -0.2428
      7 C          63.6646   90.9211   13.4461 C.ar    1  UNL1        0.3357
      8 O          62.4218   90.1032   13.2553 O.2     1  UNL1       -0.2461
      9 N          66.1969   93.0796   11.2831 N.pl3   1  UNL1       -0.2930
     10 C          65.8528   94.5006   10.9481 C.3     1  UNL1        0.0922
     11 C          66.4975   95.1709    9.7712 C.3     1  UNL1        0.0229
     12 C          67.4863   94.4202    8.9294 C.3     1  UNL1        0.0190
     13 C          67.8304   92.9991    9.2644 C.3     1  UNL1        0.0709
     14 N          68.8192   92.2484    8.4226 N.3     1  UNL1       -0.3208
     15 C          67.1857   92.3288   10.4413 C.3     1  UNL1        0.1075
     16 H          69.1546   92.8523    7.6722 H       1  UNL1        0.1189
     17 H          68.3689   91.4258    8.0215 H       1  UNL1        0.1189
     18 C          63.7112   91.4438   10.9016 C.3     1  UNL1        0.1879
     19 C          61.7712   87.5651    9.7008 C.3     1  UNL1        0.0900
     20 C          62.4179   88.8580   10.1010 C.1     1  UNL1       -0.0881
     21 C          63.0646   90.1509   10.5013 C.1     1  UNL1       -0.0655
     22 C          63.6179   90.3984   15.9906 C.3     1  UNL1        0.1592
     23 C          63.5587   88.9012   16.0613 C.ar    1  UNL1        0.0820
     24 C          62.9235   88.2308   17.2433 C.ar    1  UNL1        0.0167
     25 C          62.8644   86.7336   17.3141 C.ar    1  UNL1        0.0028
     26 C          63.4404   85.9069   16.2029 C.ar    1  UNL1        0.0177
     27 C          63.3812   84.4097   16.2737 C.ar    1  UNL1        0.0015
     28 C          63.9573   83.5830   15.1626 C.ar    1  UNL1        0.0001
     29 C          64.5924   84.2535   13.9806 C.ar    1  UNL1        0.0015
     30 C          64.6516   85.7506   13.9098 C.ar    1  UNL1        0.0191
     31 C          64.0756   86.5773   15.0209 C.ar    1  UNL1        0.0810
     32 N          64.1347   88.0745   14.9502 N.ar    1  UNL1       -0.2477
@<TRIPOS>BOND
     1    19    20    1
     2    20    21    3
     3    21    18    1
     4    18     1    1
     5     1     2   ar
     6     2     9    1
     7     9    10    1
     8    10    11    1
     9    11    12    1
    10    12    13    1
    11    13    14    1
    12    13    15    1
    13     2     3   ar
    14     3     4   ar
    15     4     5    2
    16     4     6   ar
    17     6    22    1
    18    22    23    1
    19    23    24   ar
    20    24    25   ar
    21    25    26   ar
    22    26    27   ar
    23    27    28   ar
    24    28    29   ar
    25    29    30   ar
    26    30    31   ar
    27    31    32   ar
    28     6     7   ar
    29     7     8    2
    30     7     1   ar
    31    15     9    1
    32    32    23   ar
    33    31    26   ar
    34    14    16    1
    35    14    17    1
@<TRIPOS>MOLECULE
*****
 32 35 0 0 0
SMALL
GASTEIGER

@<TRIPOS>ATOM
      1 N          63.6063   90.7057   14.2238 N.ar    1  UNL1       -0.2570
      2 C          64.6845   91.3726   13.4221 C.ar    1  UNL1        0.1213
      3 C          64.4957   91.5963   11.9509 C.ar    1  UNL1        0.0935
      4 C          63.2286   91.1532   11.2814 C.ar    1  UNL1        0.2674
      5 O          63.0398   91.3769    9.8103 O.2     1  UNL1       -0.2667
      6 N          62.1504   90.4863   12.0832 N.ar    1  UNL1       -0.2428
      7 C          62.3392   90.2626   13.5543 C.ar    1  UNL1        0.3357
      8 O          61.2610   89.5957   14.3560 O.2     1  UNL1       -0.2461
      9 N          65.9515   91.8157   14.0916 N.pl3   1  UNL1       -0.2930
     10 C          65.9039   92.4141   15.4662 C.3     1  UNL1        0.0922
     11 C          67.1709   92.8572   16.1356 C.3     1  UNL1        0.0229
     12 C          68.4857   92.7021   15.4305 C.3     1  UNL1        0.0190
     13 C          68.5334   92.1037   14.0558 C.3     1  UNL1        0.0709
     14 N          69.8481   91.9485   13.3506 N.3     1  UNL1       -0.3208
     15 C          67.2663   91.6605   13.3863 C.3     1  UNL1        0.1075
     16 H          70.5975   92.2988   13.9474 H       1  UNL1        0.1189
     17 H          69.8313   92.4787   12.4794 H       1  UNL1        0.1189
     18 C          63.7951   90.4820   15.6949 C.3     1  UNL1        0.1879
     19 C          62.6002   86.5582   17.5458 C.3     1  UNL1        0.0900
     20 C          62.9985   87.8661   16.9288 C.1     1  UNL1       -0.0881
     21 C          63.3968   89.1741   16.3118 C.1     1  UNL1       -0.0655
     22 C          60.8833   90.0431   11.4137 C.3     1  UNL1        0.1592
     23 C          60.9238   88.9685   10.3679 C.ar    1  UNL1        0.0820
     24 C          59.9063   88.9557    9.2659 C.ar    1  UNL1        0.0167
     25 C          59.9467   87.8812    8.2201 C.ar    1  UNL1        0.0028
     26 C          61.0049   86.8194    8.2763 C.ar    1  UNL1        0.0177
     27 C          61.0453   85.7449    7.2305 C.ar    1  UNL1        0.0015
     28 C          62.1034   84.6832    7.2866 C.ar    1  UNL1        0.0001
     29 C          63.1210   84.6960    8.3886 C.ar    1  UNL1        0.0015
     30 C          63.0805   85.7705    9.4344 C.ar    1  UNL1        0.0191
     31 C          62.0224   86.8322    9.3782 C.ar    1  UNL1        0.0810
     32 N          61.9819   87.9068   10.4241 N.ar    1  UNL1       -0.2477
@<TRIPOS>BOND
     1    19    20    1
     2    20    21    3
     3    21    18    1
     4    18     1    1
     5     1     2   ar
     6     2     9    1
     7     9    10    1
     8    10    11    1
     9    11    12    1
    10    12    13    1
    11    13    14    1
    12    13    15    1
    13     2     3   ar
    14     3     4   ar
    15     4     5    2
    16     4     6   ar
    17     6    22    1
    18    22    23    1
    19    23    24   ar
    20    24    25   ar
    21    25    26   ar
    22    26    27   ar
    23    27    28   ar
    24    28    29   ar
    25    29    30   ar
    26    30    31   ar
    27    31    32   ar
    28     6     7   ar
    29     7     8    2
    30     7     1   ar
    31    15     9    1
    32    32    23   ar
    33    31    26   ar
    34    14    16    1
    35    14    17    1
@<TRIPOS>MOLECULE
*****
 32 35 0 0 0
SMALL
GASTEIGER

@<TRIPOS>ATOM
      1 N          63.3703   86.3106   12.9016 N.ar    1  UNL1       -0.2570
      2 C          62.7767   85.4463   11.8290 C.ar    1  UNL1        0.1213
      3 C          62.0583   86.0743   10.6716 C.ar    1  UNL1        0.0935
      4 C          61.9335   87.5667   10.5869 C.ar    1  UNL1        0.2674
      5 O          61.2151   88.1948    9.4296 O.2     1  UNL1       -0.2667
      6 N          62.5271   88.4311   11.6596 N.ar    1  UNL1       -0.2428
      7 C          63.2455   87.8030   12.8169 C.ar    1  UNL1        0.3357
      8 O          63.8390   88.6673   13.8896 O.2     1  UNL1       -0.2461
      9 N          62.9015   83.9539   11.9137 N.pl3   1  UNL1       -0.2930
     10 C          63.4581   83.1808   10.7550 C.3     1  UNL1        0.0922
     11 C          63.5829   81.6885   10.8397 C.3     1  UNL1        0.0229
     12 C          63.1512   80.9691   12.0831 C.3     1  UNL1        0.0190
     13 C          62.5946   81.7421   13.2419 C.3     1  UNL1        0.0709
     14 N          62.1629   81.0227   14.4853 N.3     1  UNL1       -0.3208
     15 C          62.4698   83.2345   13.1572 C.3     1  UNL1        0.1075
     16 H          62.3172   80.0211   14.3695 H       1  UNL1        0.1189
     17 H          61.1718   81.1970   14.6521 H       1  UNL1        0.1189
     18 C          64.0886   85.6825   14.0590 C.3     1  UNL1        0.1879
     19 C          62.7573   86.5457   18.2700 C.3     1  UNL1        0.0900
     20 C          63.2011   86.2579   16.8663 C.1     1  UNL1       -0.0881
     21 C          63.6449   85.9702   15.4626 C.1     1  UNL1       -0.0655
     22 C          62.4023   89.9235   11.5749 C.3     1  UNL1        0.1592
     23 C          63.5381   90.7974   12.0180 C.ar    1  UNL1        0.0820
     24 C          64.3124   91.5906   11.0074 C.ar    1  UNL1        0.0167
     25 C          65.4482   92.4645   11.4503 C.ar    1  UNL1        0.0028
     26 C          65.8097   92.5453   12.9040 C.ar    1  UNL1        0.0177
     27 C          66.9454   93.4192   13.3469 C.ar    1  UNL1        0.0015
     28 C          67.3068   93.5000   14.8004 C.ar    1  UNL1        0.0001
     29 C          66.5325   92.7068   15.8110 C.ar    1  UNL1        0.0015
     30 C          65.3967   91.8329   15.3681 C.ar    1  UNL1        0.0191
     31 C          65.0353   91.7521   13.9145 C.ar    1  UNL1        0.0810
     32 N          63.8995   90.8782   13.4715 N.ar    1  UNL1       -0.2477
@<TRIPOS>BOND
     1    19    20    1
     2    20    21    3
     3    21    18    1
     4    18     1    1
     5     1     2   ar
     6     2     9    1
     7     9    10    1
     8    10    11    1
     9    11    12    1
    10    12    13    1
    11    13    14    1
    12    13    15    1
    13     2     3   ar
    14     3     4   ar
    15     4     5    2
    16     4     6   ar
    17     6    22    1
    18    22    23    1
    19    23    24   ar
    20    24    25   ar
    21    25    26   ar
    22    26    27   ar
    23    27    28   ar
    24    28    29   ar
    25    29    30   ar
    26    30    31   ar
    27    31    32   ar
    28     6     7   ar
    29     7     8    2
    30     7     1   ar
    31    15     9    1
    32    32    23   ar
    33    31    26   ar
    34    14    16    1
    35    14    17    1
@<TRIPOS>MOLECULE
*****
 32 35 0 0 0
SMALL
GASTEIGER

@<TRIPOS>ATOM
      1 N          65.4886   92.5254   12.6006 N.ar    1  UNL1       -0.2570
      2 C          65.2908   92.5289   11.1137 C.ar    1  UNL1        0.1213
      3 C          64.3240   91.5708   10.4834 C.ar    1  UNL1        0.0935
      4 C          63.5551   90.6090   11.3399 C.ar    1  UNL1        0.2674
      5 O          62.5883   89.6508   10.7097 O.2     1  UNL1       -0.2667
      6 N          63.7529   90.6054   12.8269 N.ar    1  UNL1       -0.2428
      7 C          64.7196   91.5636   13.4572 C.ar    1  UNL1        0.3357
      8 O          64.9174   91.5600   14.9440 O.2     1  UNL1       -0.2461
      9 N          66.0598   93.4907   10.2572 N.pl3   1  UNL1       -0.2930
     10 C          67.5143   93.2508    9.9802 C.3     1  UNL1        0.0922
     11 C          68.2833   94.2126    9.1236 C.3     1  UNL1        0.0229
     12 C          67.5977   95.4142    8.5440 C.3     1  UNL1        0.0190
     13 C          66.1431   95.6541    8.8209 C.3     1  UNL1        0.0709
     14 N          65.4575   96.8558    8.2413 N.3     1  UNL1       -0.3208
     15 C          65.3741   94.6924    9.6775 C.3     1  UNL1        0.1075
     16 H          66.1251   97.3953    7.6903 H       1  UNL1        0.1189
     17 H          65.0923   97.4361    8.9964 H       1  UNL1        0.1189
     18 C          66.4553   93.4835   13.2309 C.3     1  UNL1        0.1879
     19 C          69.1561   92.0962   16.5522 C.3     1  UNL1        0.0900
     20 C          68.2558   92.5586   15.4451 C.1     1  UNL1       -0.0881
     21 C          67.3556   93.0211   14.3380 C.1     1  UNL1       -0.0655
     22 C          62.9839   89.6437   13.6835 C.3     1  UNL1        0.1592
     23 C          63.3943   88.2022   13.7468 C.ar    1  UNL1        0.0820
     24 C          64.2952   87.7266   14.8477 C.ar    1  UNL1        0.0167
     25 C          64.7056   86.2852   14.9110 C.ar    1  UNL1        0.0028
     26 C          64.2149   85.3194   13.8734 C.ar    1  UNL1        0.0177
     27 C          64.6253   83.8781   13.9367 C.ar    1  UNL1        0.0015
     28 C          64.1347   82.9124   12.8991 C.ar    1  UNL1        0.0001
     29 C          63.2337   83.3880   11.7982 C.ar    1  UNL1        0.0015
     30 C          62.8233   84.8294   11.7349 C.ar    1  UNL1        0.0191
     31 C          63.3140   85.7951   12.7725 C.ar    1  UNL1        0.0810
     32 N          62.9036   87.2365   12.7092 N.ar    1  UNL1       -0.2477
@<TRIPOS>BOND
     1    19    20    1
     2    20    21    3
     3    21    18    1
     4    18     1    1
     5     1     2   ar
     6     2     9    1
     7     9    10    1
     8    10    11    1
     9    11    12    1
    10    12    13    1
    11    13    14    1
    12    13    15    1
    13     2     3   ar
    14     3     4   ar
    15     4     5    2
    16     4     6   ar
    17     6    22    1
    18    22    23    1
    19    23    24   ar
    20    24    25   ar
    21    25    26   ar
    22    26    27   ar
    23    27    28   ar
    24    28    29   ar
    25    29    30   ar
    26    30    31   ar
    27    31    32   ar
    28     6     7   ar
    29     7     8    2
    30     7     1   ar
    31    15     9    1
    32    32    23   ar
    33    31    26   ar
    34    14    16    1
    35    14    17    1
@<TRIPOS>MOLECULE
*****
 32 35 0 0 0
SMALL
GASTEIGER

@<TRIPOS>ATOM
      1 N          65.8094   92.6043   13.9440 N.ar    1  UNL1       -0.2570
      2 C          65.3774   92.3723   12.5264 C.ar    1  UNL1        0.1213
      3 C          64.2486   91.4297   12.2310 C.ar    1  UNL1        0.0935
      4 C          63.5517   90.7191   13.3532 C.ar    1  UNL1        0.2674
      5 O          62.4229   89.7765   13.0578 O.2     1  UNL1       -0.2667
      6 N          63.9837   90.9511   14.7708 N.ar    1  UNL1       -0.2428
      7 C          65.1125   91.8936   15.0662 C.ar    1  UNL1        0.3357
      8 O          65.5444   92.1256   16.4838 O.2     1  UNL1       -0.2461
      9 N          66.0743   93.0830   11.4042 N.pl3   1  UNL1       -0.2930
     10 C          65.8028   94.5367   11.1538 C.3     1  UNL1        0.0922
     11 C          66.4997   95.2474   10.0315 C.3     1  UNL1        0.0229
     12 C          67.4681   94.5042    9.1598 C.3     1  UNL1        0.0190
     13 C          67.7396   93.0504    9.4102 C.3     1  UNL1        0.0709
     14 N          68.7079   92.3072    8.5385 N.3     1  UNL1       -0.3208
     15 C          67.0427   92.3397   10.5325 C.3     1  UNL1        0.1075
     16 H          69.0849   92.9399    7.8328 H       1  UNL1        0.1189
     17 H          68.2275   91.5334    8.0795 H       1  UNL1        0.1189
     18 C          66.9382   93.5468   14.2394 C.3     1  UNL1        0.1879
     19 C          70.2945   92.2596   16.9465 C.3     1  UNL1        0.0900
     20 C          69.1757   92.6887   16.0441 C.1     1  UNL1       -0.0881
     21 C          68.0569   93.1178   15.1418 C.1     1  UNL1       -0.0655
     22 C          63.2868   90.2404   15.8931 C.3     1  UNL1        0.1592
     23 C          63.3555   88.7452   15.9914 C.ar    1  UNL1        0.0820
     24 C          62.8167   88.0478   17.2052 C.ar    1  UNL1        0.0167
     25 C          62.8854   86.5527   17.3035 C.ar    1  UNL1        0.0028
     26 C          63.4929   85.7548   16.1880 C.ar    1  UNL1        0.0177
     27 C          63.5617   84.2596   16.2864 C.ar    1  UNL1        0.0015
     28 C          64.1692   83.4618   15.1709 C.ar    1  UNL1        0.0001
     29 C          64.7080   84.1591   13.9571 C.ar    1  UNL1        0.0015
     30 C          64.6393   85.6543   13.8587 C.ar    1  UNL1        0.0191
     31 C          64.0318   86.4521   14.9742 C.ar    1  UNL1        0.0810
     32 N          63.9631   87.9474   14.8759 N.ar    1  UNL1       -0.2477
@<TRIPOS>BOND
     1    19    20    1
     2    20    21    3
     3    21    18    1
     4    18     1    1
     5     1     2   ar
     6     2     9    1
     7     9    10    1
     8    10    11    1
     9    11    12    1
    10    12    13    1
    11    13    14    1
    12    13    15    1
    13     2     3   ar
    14     3     4   ar
    15     4     5    2
    16     4     6   ar
    17     6    22    1
    18    22    23    1
    19    23    24   ar
    20    24    25   ar
    21    25    26   ar
    22    26    27   ar
    23    27    28   ar
    24    28    29   ar
    25    29    30   ar
    26    30    31   ar
    27    31    32   ar
    28     6     7   ar
    29     7     8    2
    30     7     1   ar
    31    15     9    1
    32    32    23   ar
    33    31    26   ar
    34    14    16    1
    35    14    17    1
@<TRIPOS>MOLECULE
*****
 32 35 0 0 0
SMALL
GASTEIGER

@<TRIPOS>ATOM
      1 N          62.6765   86.3427   11.4742 N.ar    1  UNL1       -0.2570
      2 C          63.2381   85.5412   12.6109 C.ar    1  UNL1        0.1213
      3 C          63.8190   86.2384   13.8053 C.ar    1  UNL1        0.0935
      4 C          63.8382   87.7372   13.8630 C.ar    1  UNL1        0.2674
      5 O          64.4191   88.4344   15.0573 O.2     1  UNL1       -0.2667
      6 N          63.2766   88.5387   12.7262 N.ar    1  UNL1       -0.2428
      7 C          62.6957   87.8415   11.5319 C.ar    1  UNL1        0.3357
      8 O          62.1341   88.6430   10.3952 O.2     1  UNL1       -0.2461
      9 N          63.2189   84.0424   12.5532 N.pl3   1  UNL1       -0.2930
     10 C          63.9378   83.3250   11.4494 C.3     1  UNL1        0.0922
     11 C          63.9186   81.8263   11.3918 C.3     1  UNL1        0.0229
     12 C          63.1805   81.0449   12.4379 C.3     1  UNL1        0.0190
     13 C          62.4615   81.7622   13.5418 C.3     1  UNL1        0.0709
     14 N          61.7233   80.9808   14.5880 N.3     1  UNL1       -0.3208
     15 C          62.4807   83.2610   13.5995 C.3     1  UNL1        0.1075
     16 H          61.8150   79.9834   14.3952 H       1  UNL1        0.1189
     17 H          60.7371   81.2406   14.5736 H       1  UNL1        0.1189
     18 C          62.0957   85.6455   10.2799 C.3     1  UNL1        0.1879
     19 C          59.0003   87.7139    7.7519 C.3     1  UNL1        0.0900
     20 C          60.0321   87.0244    8.5946 C.1     1  UNL1       -0.0881
     21 C          61.0639   86.3350    9.4373 C.1     1  UNL1       -0.0655
     22 C          63.2958   90.0375   12.7839 C.3     1  UNL1        0.1592
     23 C          64.2747   90.7412   13.6765 C.ar    1  UNL1        0.0820
     24 C          63.8475   91.2098   15.0359 C.ar    1  UNL1        0.0167
     25 C          64.8263   91.9135   15.9284 C.ar    1  UNL1        0.0028
     26 C          66.2323   92.1486   15.4616 C.ar    1  UNL1        0.0177
     27 C          67.2111   92.8523   16.3542 C.ar    1  UNL1        0.0015
     28 C          68.6171   93.0874   15.8874 C.ar    1  UNL1        0.0001
     29 C          69.0443   92.6188   14.5280 C.ar    1  UNL1        0.0015
     30 C          68.0655   91.9151   13.6354 C.ar    1  UNL1        0.0191
     31 C          66.6595   91.6800   14.1023 C.ar    1  UNL1        0.0810
     32 N          65.6806   90.9763   13.2097 N.ar    1  UNL1       -0.2477
@<TRIPOS>BOND
     1    19    20    1
     2    20    21    3
     3    21    18    1
     4    18     1    1
     5     1     2   ar
     6     2     9    1
     7     9    10    1
     8    10    11    1
     9    11    12    1
    10    12    13    1
    11    13    14    1
    12    13    15    1
    13     2     3   ar
    14     3     4   ar
    15     4     5    2
    16     4     6   ar
    17     6    22    1
    18    22    23    1
    19    23    24   ar
    20    24    25   ar
    21    25    26   ar
    22    26    27   ar
    23    27    28   ar
    24    28    29   ar
    25    29    30   ar
    26    30    31   ar
    27    31    32   ar
    28     6     7   ar
    29     7     8    2
    30     7     1   ar
    31    15     9    1
    32    32    23   ar
    33    31    26   ar
    34    14    16    1
    35    14    17    1
@<TRIPOS>MOLECULE
*****
 32 35 0 0 0
SMALL
GASTEIGER

@<TRIPOS>ATOM
      1 N          63.5549   86.1676   13.4501 N.ar    1  UNL1       -0.2570
      2 C          63.0104   85.4639   12.2425 C.ar    1  UNL1        0.1213
      3 C          62.5444   86.2579   11.0583 C.ar    1  UNL1        0.0935
      4 C          62.6230   87.7557   11.0817 C.ar    1  UNL1        0.2674
      5 O          62.1570   88.5498    9.8975 O.2     1  UNL1       -0.2667
      6 N          63.1675   88.4594   12.2893 N.ar    1  UNL1       -0.2428
      7 C          63.6335   87.6653   13.4735 C.ar    1  UNL1        0.3357
      8 O          64.1780   88.3690   14.6811 O.2     1  UNL1       -0.2461
      9 N          62.9319   83.9661   12.2191 N.pl3   1  UNL1       -0.2930
     10 C          63.3782   83.2106   11.0026 C.3     1  UNL1        0.0922
     11 C          63.2997   81.7128   10.9792 C.3     1  UNL1        0.0229
     12 C          62.7748   80.9706   12.1723 C.3     1  UNL1        0.0190
     13 C          62.3284   81.7261   13.3889 C.3     1  UNL1        0.0709
     14 N          61.8035   80.9839   14.5820 N.3     1  UNL1       -0.3208
     15 C          62.4069   83.2239   13.4123 C.3     1  UNL1        0.1075
     16 H          61.8206   79.9816   14.3935 H       1  UNL1        0.1189
     17 H          60.8452   81.2780   14.7708 H       1  UNL1        0.1189
     18 C          64.0209   85.3735   14.6343 C.3     1  UNL1        0.1879
     19 C          62.7551   86.5687   18.7839 C.3     1  UNL1        0.0900
     20 C          63.1771   86.1703   17.4007 C.1     1  UNL1       -0.0881
     21 C          63.5990   85.7719   16.0175 C.1     1  UNL1       -0.0655
     22 C          63.2461   89.9572   12.3127 C.3     1  UNL1        0.1592
     23 C          64.1182   90.6468   13.3197 C.ar    1  UNL1        0.0820
     24 C          63.5624   91.0219   14.6614 C.ar    1  UNL1        0.0167
     25 C          64.4344   91.7115   15.6683 C.ar    1  UNL1        0.0028
     26 C          65.8624   92.0261   15.3335 C.ar    1  UNL1        0.0177
     27 C          66.7345   92.7157   16.3404 C.ar    1  UNL1        0.0015
     28 C          68.1624   93.0302   16.0055 C.ar    1  UNL1        0.0001
     29 C          68.7182   92.6551   14.6638 C.ar    1  UNL1        0.0015
     30 C          67.8461   91.9655   13.6569 C.ar    1  UNL1        0.0191
     31 C          66.4182   91.6510   13.9917 C.ar    1  UNL1        0.0810
     32 N          65.5461   90.9613   12.9848 N.ar    1  UNL1       -0.2477
@<TRIPOS>BOND
     1    19    20    1
     2    20    21    3
     3    21    18    1
     4    18     1    1
     5     1     2   ar
     6     2     9    1
     7     9    10    1
     8    10    11    1
     9    11    12    1
    10    12    13    1
    11    13    14    1
    12    13    15    1
    13     2     3   ar
    14     3     4   ar
    15     4     5    2
    16     4     6   ar
    17     6    22    1
    18    22    23    1
    19    23    24   ar
    20    24    25   ar
    21    25    26   ar
    22    26    27   ar
    23    27    28   ar
    24    28    29   ar
    25    29    30   ar
    26    30    31   ar
    27    31    32   ar
    28     6     7   ar
    29     7     8    2
    30     7     1   ar
    31    15     9    1
    32    32    23   ar
    33    31    26   ar
    34    14    16    1
    35    14    17    1
@<TRIPOS>MOLECULE
*****
 32 35 0 0 0
SMALL
GASTEIGER

@<TRIPOS>ATOM
      1 N          64.3873   91.2879   12.4736 N.ar    1  UNL1       -0.2570
      2 C          64.4882   91.8903   11.1036 C.ar    1  UNL1        0.1213
      3 C          63.6731   91.3300    9.9759 C.ar    1  UNL1        0.0935
      4 C          62.7571   90.1671   10.2182 C.ar    1  UNL1        0.2674
      5 O          61.9420   89.6068    9.0906 O.2     1  UNL1       -0.2667
      6 N          62.6562   89.5647   11.5883 N.ar    1  UNL1       -0.2428
      7 C          63.4712   90.1251   12.7159 C.ar    1  UNL1        0.3357
      8 O          63.3702   89.5226   14.0858 O.2     1  UNL1       -0.2461
      9 N          65.4043   93.0532   10.8613 N.pl3   1  UNL1       -0.2930
     10 C          66.5937   92.8960    9.9611 C.3     1  UNL1        0.0922
     11 C          67.5098   94.0588    9.7187 C.3     1  UNL1        0.0229
     12 C          67.2363   95.3788   10.3766 C.3     1  UNL1        0.0190
     13 C          66.0468   95.5360   11.2769 C.3     1  UNL1        0.0709
     14 N          65.7734   96.8560   11.9348 N.3     1  UNL1       -0.3208
     15 C          65.1308   94.3732   11.5192 C.3     1  UNL1        0.1075
     16 H          66.4908   97.5274   11.6610 H       1  UNL1        0.1189
     17 H          65.7855   96.7398   12.9481 H       1  UNL1        0.1189
     18 C          65.2023   91.8483   13.6012 C.3     1  UNL1        0.1879
     19 C          69.6964   91.7671   13.3861 C.3     1  UNL1        0.0900
     20 C          68.1984   91.7942   13.4578 C.1     1  UNL1       -0.0881
     21 C          66.7004   91.8212   13.5295 C.1     1  UNL1       -0.0655
     22 C          61.7401   88.4019   11.8306 C.3     1  UNL1        0.1592
     23 C          62.1959   87.0088   11.5113 C.ar    1  UNL1        0.0820
     24 C          62.1131   86.4967   10.1039 C.ar    1  UNL1        0.0167
     25 C          62.5688   85.1038    9.7846 C.ar    1  UNL1        0.0028
     26 C          63.1073   84.2229   10.8728 C.ar    1  UNL1        0.0177
     27 C          63.5630   82.8299   10.5535 C.ar    1  UNL1        0.0015
     28 C          64.1015   81.9491   11.6416 C.ar    1  UNL1        0.0001
     29 C          64.1842   82.4612   13.0491 C.ar    1  UNL1        0.0015
     30 C          63.7285   83.8541   13.3684 C.ar    1  UNL1        0.0191
     31 C          63.1900   84.7350   12.2802 C.ar    1  UNL1        0.0810
     32 N          62.7343   86.1280   12.5995 N.ar    1  UNL1       -0.2477
@<TRIPOS>BOND
     1    19    20    1
     2    20    21    3
     3    21    18    1
     4    18     1    1
     5     1     2   ar
     6     2     9    1
     7     9    10    1
     8    10    11    1
     9    11    12    1
    10    12    13    1
    11    13    14    1
    12    13    15    1
    13     2     3   ar
    14     3     4   ar
    15     4     5    2
    16     4     6   ar
    17     6    22    1
    18    22    23    1
    19    23    24   ar
    20    24    25   ar
    21    25    26   ar
    22    26    27   ar
    23    27    28   ar
    24    28    29   ar
    25    29    30   ar
    26    30    31   ar
    27    31    32   ar
    28     6     7   ar
    29     7     8    2
    30     7     1   ar
    31    15     9    1
    32    32    23   ar
    33    31    26   ar
    34    14    16    1
    35    14    17    1
@<TRIPOS>MOLECULE
*****
 32 35 0 0 0
SMALL
GASTEIGER

@<TRIPOS>ATOM
      1 N          62.1406   86.3094   11.4846 N.ar    1  UNL1       -0.2570
      2 C          63.0618   85.4056   12.2490 C.ar    1  UNL1        0.1213
      3 C          63.9076   85.9599   13.3570 C.ar    1  UNL1        0.0935
      4 C          63.8320   87.4181   13.7005 C.ar    1  UNL1        0.2674
      5 O          64.6777   87.9724   14.8084 O.2     1  UNL1       -0.2667
      6 N          62.9107   88.3220   12.9360 N.ar    1  UNL1       -0.2428
      7 C          62.0651   87.7676   11.8281 C.ar    1  UNL1        0.3357
      8 O          61.1439   88.6715   11.0637 O.2     1  UNL1       -0.2461
      9 N          63.1374   83.9474   11.9055 N.pl3   1  UNL1       -0.2930
     10 C          63.8094   83.5093   10.6381 C.3     1  UNL1        0.0922
     11 C          63.8850   82.0511   10.2946 C.3     1  UNL1        0.0229
     12 C          63.2884   81.0310   11.2185 C.3     1  UNL1        0.0190
     13 C          62.6163   81.4691   12.4860 C.3     1  UNL1        0.0709
     14 N          62.0198   80.4491   13.4098 N.3     1  UNL1       -0.3208
     15 C          62.5408   82.9273   12.8295 C.3     1  UNL1        0.1075
     16 H          62.1613   79.5160   13.0230 H       1  UNL1        0.1189
     17 H          61.0206   80.6266   13.5127 H       1  UNL1        0.1189
     18 C          61.2949   85.7551   10.3767 C.3     1  UNL1        0.1879
     19 C          59.4275   88.5308    7.3670 C.3     1  UNL1        0.0900
     20 C          60.0500   87.6056    8.3703 C.1     1  UNL1       -0.0881
     21 C          60.6725   86.6803    9.3735 C.1     1  UNL1       -0.0655
     22 C          62.8352   89.7801   13.2795 C.3     1  UNL1        0.1592
     23 C          63.5659   90.7869   12.4413 C.ar    1  UNL1        0.0820
     24 C          63.3793   90.8008   10.9530 C.ar    1  UNL1        0.0167
     25 C          64.1099   91.8075   10.1148 C.ar    1  UNL1        0.0028
     26 C          65.0273   92.8005   10.7649 C.ar    1  UNL1        0.0177
     27 C          65.7579   93.8072    9.9267 C.ar    1  UNL1        0.0015
     28 C          66.6752   94.8001   10.5768 C.ar    1  UNL1        0.0001
     29 C          66.8618   94.7863   12.0651 C.ar    1  UNL1        0.0015
     30 C          66.1312   93.7796   12.9033 C.ar    1  UNL1        0.0191
     31 C          65.2139   92.7867   12.2532 C.ar    1  UNL1        0.0810
     32 N          64.4832   91.7799   13.0914 N.ar    1  UNL1       -0.2477
@<TRIPOS>BOND
     1    19    20    1
     2    20    21    3
     3    21    18    1
     4    18     1    1
     5     1     2   ar
     6     2     9    1
     7     9    10    1
     8    10    11    1
     9    11    12    1
    10    12    13    1
    11    13    14    1
    12    13    15    1
    13     2     3   ar
    14     3     4   ar
    15     4     5    2
    16     4     6   ar
    17     6    22    1
    18    22    23    1
    19    23    24   ar
    20    24    25   ar
    21    25    26   ar
    22    26    27   ar
    23    27    28   ar
    24    28    29   ar
    25    29    30   ar
    26    30    31   ar
    27    31    32   ar
    28     6     7   ar
    29     7     8    2
    30     7     1   ar
    31    15     9    1
    32    32    23   ar
    33    31    26   ar
    34    14    16    1
    35    14    17    1
