@<TRIPOS>MOLECULE
*****
 35 40 0 0 0
SMALL
GASTEIGER

@<TRIPOS>ATOM
      1 C          63.1292   85.8872   12.0603 C.2     1  UNL1        0.2301
      2 O          63.4399   86.5224   13.3832 O.2     1  UNL1       -0.2745
      3 N          62.3792   86.6591   11.0154 N.am    1  UNL1       -0.2793
      4 C          61.9398   88.0660   11.2934 C.3     1  UNL1        0.0935
      5 C          61.1898   88.8379   10.2486 C.3     1  UNL1        0.0242
      6 C          60.8791   88.2027    8.9257 C.3     1  UNL1        0.0328
      7 C          61.3185   86.7957    8.6477 C.3     1  UNL1        0.0242
      8 C          62.0685   86.0239    9.6925 C.3     1  UNL1        0.0935
      9 C          60.2963   89.5822    8.8404 C.3     1  UNL1        0.0737
     10 N          59.8184   89.2943    7.4480 N.3     1  UNL1       -0.2702
     11 C          60.4013   87.9148    7.5333 C.3     1  UNL1        0.0737
     12 C          59.0684   90.0661    6.4032 C.3     1  UNL1        0.0801
     13 C          57.5766   90.1615    6.2788 C.3     1  UNL1        0.0251
     14 C          57.2647   91.0324    5.0980 C.3     1  UNL1        0.0278
     15 C          58.5637   91.4752    4.4926 C.ar    1  UNL1       -0.0247
     16 C          58.8755   92.3450    3.3110 C.ar    1  UNL1       -0.0015
     17 C          60.3021   92.6177    2.9361 C.ar    1  UNL1        0.0355
     18 C          61.4168   92.0204    3.7428 C.ar    1  UNL1        0.0027
     19 C          61.1050   91.1506    4.9243 C.ar    1  UNL1       -0.0032
     20 C          59.6784   90.8779    5.2993 C.ar    1  UNL1       -0.0117
     21 C          60.6138   93.4876    1.7545 C.ar    1  UNL1        0.1622
     22 N          59.7658   94.6902    1.4640 N.ar    1  UNL1       -0.2250
     23 C          60.0776   95.5600    0.2824 C.ar    1  UNL1        0.1022
     24 C          61.2375   95.2272   -0.6087 C.ar    1  UNL1        0.0414
     25 C          62.0855   94.0245   -0.3181 C.ar    1  UNL1        0.1022
     26 N          61.7737   93.1547    0.8635 N.ar    1  UNL1       -0.2250
     27 C          63.5686   84.4802   11.7822 C.3     1  UNL1        0.1116
     28 C          61.4573   81.0318   13.7574 C.ar    1  UNL1        0.1387
     29 C          61.5857   82.3429   14.4748 C.ar    1  UNL1        0.0366
     30 C          62.2895   83.4923   13.8165 C.ar    1  UNL1       -0.0007
     31 C          62.8648   83.3307   12.4407 C.ar    1  UNL1       -0.0129
     32 C          62.7364   82.0197   11.7232 C.ar    1  UNL1       -0.0007
     33 C          62.0327   80.8702   12.3816 C.ar    1  UNL1        0.0366
     34 C          59.2556   79.8080   14.3936 C.3     1  UNL1        0.2525
     35 O          60.7536   79.8823   14.4158 O.3     1  UNL1       -0.4714
@<TRIPOS>BOND
     1    34    35    1
     2    35    28    1
     3    28    29   ar
     4    29    30   ar
     5    30    31   ar
     6    31    27    1
     7    27     1    1
     8     1     2    2
     9     1     3   am
    10     3     4    1
    11     4     5    1
    12     5     6    1
    13     6     7    1
    14     7     8    1
    15     6     9    1
    16     9    10    1
    17    12    10    1
    18    12    13    1
    19    13    14    1
    20    14    15    1
    21    15    16   ar
    22    16    17   ar
    23    17    21    1
    24    21    22   ar
    25    22    23   ar
    26    23    24   ar
    27    24    25   ar
    28    25    26   ar
    29    17    18   ar
    30    18    19   ar
    31    19    20   ar
    32    10    11    1
    33    31    32   ar
    34    32    33   ar
    35    33    28   ar
    36     8     3    1
    37    20    12    1
    38    11     6    1
    39    20    15   ar
    40    26    21   ar
@<TRIPOS>MOLECULE
*****
 35 40 0 0 0
SMALL
GASTEIGER

@<TRIPOS>ATOM
      1 C          62.7670   84.7425   11.2877 C.2     1  UNL1        0.2301
      2 O          62.4425   83.2792   11.2281 O.2     1  UNL1       -0.2745
      3 N          62.0773   85.7019   10.3636 N.am    1  UNL1       -0.2793
      4 C          61.0632   85.1981    9.3800 C.3     1  UNL1        0.0935
      5 C          60.3736   86.1575    8.4560 C.3     1  UNL1        0.0242
      6 C          60.6981   87.6208    8.5156 C.3     1  UNL1        0.0328
      7 C          61.7123   88.1246    9.4992 C.3     1  UNL1        0.0242
      8 C          62.4019   87.1652   10.4232 C.3     1  UNL1        0.0935
      9 C          59.6639   87.4962    7.4363 C.3     1  UNL1        0.0737
     10 N          59.7228   88.9777    7.2087 N.3     1  UNL1       -0.2702
     11 C          60.7570   89.1023    8.2881 C.3     1  UNL1        0.0737
     12 C          59.0332   89.9371    6.2847 C.3     1  UNL1        0.0801
     13 C          57.5571   90.1971    6.2251 C.3     1  UNL1        0.0251
     14 C          57.3102   91.2257    5.1616 C.3     1  UNL1        0.0278
     15 C          58.6336   91.6014    4.5640 C.ar    1  UNL1       -0.0247
     16 C          59.0067   92.5659    3.4774 C.ar    1  UNL1       -0.0015
     17 C          60.4447   92.7339    3.0850 C.ar    1  UNL1        0.0355
     18 C          61.5095   91.9375    3.7791 C.ar    1  UNL1        0.0027
     19 C          61.1365   90.9731    4.8656 C.ar    1  UNL1       -0.0032
     20 C          59.6985   90.8050    5.2581 C.ar    1  UNL1       -0.0117
     21 C          60.8177   93.6984    1.9984 C.ar    1  UNL1        0.1622
     22 N          61.8972   93.3441    1.0190 N.ar    1  UNL1       -0.2250
     23 C          62.2701   94.3085   -0.0675 C.ar    1  UNL1        0.1022
     24 C          61.5636   95.6275   -0.1748 C.ar    1  UNL1        0.0414
     25 C          60.4842   95.9818    0.8046 C.ar    1  UNL1        0.1022
     26 N          60.1113   95.0173    1.8912 N.ar    1  UNL1       -0.2250
     27 C          63.7812   85.2463   12.2714 C.3     1  UNL1        0.1116
     28 C          62.6864   85.6665   16.6159 C.ar    1  UNL1        0.1387
     29 C          63.6839   86.6022   15.9999 C.ar    1  UNL1        0.0366
     30 C          64.0489   86.4621   14.5517 C.ar    1  UNL1       -0.0007
     31 C          63.4163   85.3864   13.7196 C.ar    1  UNL1       -0.0129
     32 C          62.4188   84.4507   14.3356 C.ar    1  UNL1       -0.0007
     33 C          62.0539   84.5907   15.7837 C.ar    1  UNL1        0.0366
     34 C          62.6712   87.0615   18.8076 C.3     1  UNL1        0.2525
     35 O          62.3215   85.8066   18.0641 O.3     1  UNL1       -0.4714
@<TRIPOS>BOND
     1    34    35    1
     2    35    28    1
     3    28    29   ar
     4    29    30   ar
     5    30    31   ar
     6    31    27    1
     7    27     1    1
     8     1     2    2
     9     1     3   am
    10     3     4    1
    11     4     5    1
    12     5     6    1
    13     6     7    1
    14     7     8    1
    15     6     9    1
    16     9    10    1
    17    12    10    1
    18    12    13    1
    19    13    14    1
    20    14    15    1
    21    15    16   ar
    22    16    17   ar
    23    17    21    1
    24    21    22   ar
    25    22    23   ar
    26    23    24   ar
    27    24    25   ar
    28    25    26   ar
    29    17    18   ar
    30    18    19   ar
    31    19    20   ar
    32    10    11    1
    33    31    32   ar
    34    32    33   ar
    35    33    28   ar
    36     8     3    1
    37    20    12    1
    38    11     6    1
    39    20    15   ar
    40    26    21   ar
@<TRIPOS>MOLECULE
*****
 35 40 0 0 0
SMALL
GASTEIGER

@<TRIPOS>ATOM
      1 C          58.6881   89.8920    6.0553 C.2     1  UNL1        0.2301
      2 O          57.2616   90.2596    6.3382 O.2     1  UNL1       -0.2745
      3 N          59.5152   90.7456    5.1403 N.am    1  UNL1       -0.2793
      4 C          58.9159   91.9667    4.5082 C.3     1  UNL1        0.0935
      5 C          59.7430   92.8202    3.5932 C.3     1  UNL1        0.0242
      6 C          61.1695   92.4526    3.3103 C.3     1  UNL1        0.0328
      7 C          61.7689   91.2315    3.9424 C.3     1  UNL1        0.0242
      8 C          60.9417   90.3780    4.8574 C.3     1  UNL1        0.0935
      9 C          60.9274   93.7048    2.5206 C.3     1  UNL1        0.0737
     10 N          62.3393   93.6598    2.0162 N.3     1  UNL1       -0.2702
     11 C          62.5815   92.4076    2.8058 C.3     1  UNL1        0.0737
     12 C          63.1665   94.5133    1.1011 C.3     1  UNL1        0.0801
     13 C          63.8917   95.7695    1.4832 C.3     1  UNL1        0.0251
     14 C          64.5871   96.2931    0.2616 C.3     1  UNL1        0.0278
     15 C          64.2916   95.3604   -0.8754 C.ar    1  UNL1       -0.0247
     16 C          64.7087   95.3706   -2.3162 C.ar    1  UNL1       -0.0015
     17 C          64.2477   94.2809   -3.2382 C.ar    1  UNL1        0.0355
     18 C          63.3698   93.1809   -2.7193 C.ar    1  UNL1        0.0027
     19 C          62.9528   93.1707   -1.2785 C.ar    1  UNL1       -0.0032
     20 C          63.4137   94.2605   -0.3565 C.ar    1  UNL1       -0.0117
     21 C          64.6648   94.2912   -4.6790 C.ar    1  UNL1        0.1622
     22 N          64.7811   95.5919   -5.4170 N.ar    1  UNL1       -0.2250
     23 C          65.1981   95.6022   -6.8577 C.ar    1  UNL1        0.1022
     24 C          65.4990   94.3116   -7.5607 C.ar    1  UNL1        0.0414
     25 C          65.3828   93.0109   -6.8227 C.ar    1  UNL1        0.1022
     26 N          64.9657   93.0007   -5.3819 N.ar    1  UNL1       -0.2250
     27 C          59.2874   88.6708    6.6875 C.3     1  UNL1        0.1116
     28 C          60.9997   88.8983   10.8427 C.ar    1  UNL1        0.1387
     29 C          60.6675   90.1575   10.0985 C.ar    1  UNL1        0.0366
     30 C          60.0967   90.0818    8.7134 C.ar    1  UNL1       -0.0007
     31 C          59.8582   88.7467    8.0726 C.ar    1  UNL1       -0.0129
     32 C          60.1904   87.4874    8.8168 C.ar    1  UNL1       -0.0007
     33 C          60.7612   87.5632   10.2019 C.ar    1  UNL1        0.0366
     34 C          62.9857   89.4275   12.4321 C.3     1  UNL1        0.2525
     35 O          61.5705   88.9741   12.2279 O.3     1  UNL1       -0.4714
@<TRIPOS>BOND
     1    34    35    1
     2    35    28    1
     3    28    29   ar
     4    29    30   ar
     5    30    31   ar
     6    31    27    1
     7    27     1    1
     8     1     2    2
     9     1     3   am
    10     3     4    1
    11     4     5    1
    12     5     6    1
    13     6     7    1
    14     7     8    1
    15     6     9    1
    16     9    10    1
    17    12    10    1
    18    12    13    1
    19    13    14    1
    20    14    15    1
    21    15    16   ar
    22    16    17   ar
    23    17    21    1
    24    21    22   ar
    25    22    23   ar
    26    23    24   ar
    27    24    25   ar
    28    25    26   ar
    29    17    18   ar
    30    18    19   ar
    31    19    20   ar
    32    10    11    1
    33    31    32   ar
    34    32    33   ar
    35    33    28   ar
    36     8     3    1
    37    20    12    1
    38    11     6    1
    39    20    15   ar
    40    26    21   ar
@<TRIPOS>MOLECULE
*****
 35 40 0 0 0
SMALL
GASTEIGER

@<TRIPOS>ATOM
      1 C          60.2639   94.1766    1.5029 C.2     1  UNL1        0.2301
      2 O          59.0117   94.7748    0.9336 O.2     1  UNL1       -0.2745
      3 N          60.1776   93.1742    2.6155 N.am    1  UNL1       -0.2793
      4 C          58.8391   92.7701    3.1587 C.3     1  UNL1        0.0935
      5 C          58.7528   91.7677    4.2713 C.3     1  UNL1        0.0242
      6 C          60.0050   91.1695    4.8406 C.3     1  UNL1        0.0328
      7 C          61.3435   91.5737    4.2974 C.3     1  UNL1        0.0242
      8 C          61.4298   92.5760    3.1849 C.3     1  UNL1        0.0935
      9 C          58.8864   90.5399    5.6167 C.3     1  UNL1        0.0737
     10 N          59.8830   89.7519    6.4141 N.3     1  UNL1       -0.2702
     11 C          61.0016   90.3815    5.6380 C.3     1  UNL1        0.0737
     12 C          59.7967   88.7495    7.5266 C.3     1  UNL1        0.0801
     13 C          58.7661   87.6680    7.6609 C.3     1  UNL1        0.0251
     14 C          59.0583   86.9027    8.9175 C.3     1  UNL1        0.0278
     15 C          60.2695   87.5114    9.5598 C.ar    1  UNL1       -0.0247
     16 C          61.0158   87.1737   10.8164 C.ar    1  UNL1       -0.0015
     17 C          62.2185   87.9775   11.2133 C.ar    1  UNL1        0.0355
     18 C          62.6748   89.1189   10.3537 C.ar    1  UNL1        0.0027
     19 C          61.9285   89.4565    9.0972 C.ar    1  UNL1       -0.0032
     20 C          60.7258   88.6528    8.7001 C.ar    1  UNL1       -0.0117
     21 C          62.9648   87.6398   12.4699 C.ar    1  UNL1        0.1622
     22 N          63.1559   86.2059   12.8665 N.ar    1  UNL1       -0.2250
     23 C          63.9022   85.8682   14.1230 C.ar    1  UNL1        0.1022
     24 C          64.4574   86.9646   14.9832 C.ar    1  UNL1        0.0414
     25 C          64.2663   88.3985   14.5867 C.ar    1  UNL1        0.1022
     26 N          63.5200   88.7361   13.3300 N.ar    1  UNL1       -0.2250
     27 C          61.6023   94.5808    0.9597 C.3     1  UNL1        0.1116
     28 C          62.7979   93.3722   -3.2068 C.ar    1  UNL1        0.1387
     29 C          61.3487   93.5546   -2.8655 C.ar    1  UNL1        0.0366
     30 C          60.9502   93.9575   -1.4767 C.ar    1  UNL1       -0.0007
     31 C          62.0009   94.1779   -0.4292 C.ar    1  UNL1       -0.0129
     32 C          63.4501   93.9954   -0.7704 C.ar    1  UNL1       -0.0007
     33 C          63.8486   93.5926   -2.1592 C.ar    1  UNL1        0.0366
     34 C          64.5855   92.4700   -4.8623 C.3     1  UNL1        0.2525
     35 O          63.1965   92.9693   -4.5957 O.3     1  UNL1       -0.4714
@<TRIPOS>BOND
     1    34    35    1
     2    35    28    1
     3    28    29   ar
     4    29    30   ar
     5    30    31   ar
     6    31    27    1
     7    27     1    1
     8     1     2    2
     9     1     3   am
    10     3     4    1
    11     4     5    1
    12     5     6    1
    13     6     7    1
    14     7     8    1
    15     6     9    1
    16     9    10    1
    17    12    10    1
    18    12    13    1
    19    13    14    1
    20    14    15    1
    21    15    16   ar
    22    16    17   ar
    23    17    21    1
    24    21    22   ar
    25    22    23   ar
    26    23    24   ar
    27    24    25   ar
    28    25    26   ar
    29    17    18   ar
    30    18    19   ar
    31    19    20   ar
    32    10    11    1
    33    31    32   ar
    34    32    33   ar
    35    33    28   ar
    36     8     3    1
    37    20    12    1
    38    11     6    1
    39    20    15   ar
    40    26    21   ar
@<TRIPOS>MOLECULE
*****
 35 40 0 0 0
SMALL
GASTEIGER

@<TRIPOS>ATOM
      1 C          62.7026   86.5385   12.4719 C.2     1  UNL1        0.2301
      2 O          63.8511   87.1755   13.1966 O.2     1  UNL1       -0.2745
      3 N          62.0509   87.2524   11.3248 N.am    1  UNL1       -0.2793
      4 C          62.5477   88.6032   10.9025 C.3     1  UNL1        0.0935
      5 C          61.8960   89.3170    9.7555 C.3     1  UNL1        0.0242
      6 C          60.7475   88.6800    9.0308 C.3     1  UNL1        0.0328
      7 C          60.2507   87.3292    9.4531 C.3     1  UNL1        0.0242
      8 C          60.9024   86.6154   10.6002 C.3     1  UNL1        0.0935
      9 C          60.9584   89.9963    8.3431 C.3     1  UNL1        0.0737
     10 N          59.8259   89.6896    7.4085 N.3     1  UNL1       -0.2702
     11 C          59.6150   88.3733    8.0962 C.3     1  UNL1        0.0737
     12 C          59.1742   90.4034    6.2615 C.3     1  UNL1        0.0801
     13 C          57.6988   90.5807    6.0571 C.3     1  UNL1        0.0251
     14 C          57.4962   91.3521    4.7867 C.3     1  UNL1        0.0278
     15 C          58.8464   91.6516    4.2060 C.ar    1  UNL1       -0.0247
     16 C          59.2656   92.3825    2.9650 C.ar    1  UNL1       -0.0015
     17 C          60.7218   92.5271    2.6355 C.ar    1  UNL1        0.0355
     18 C          61.7588   91.9407    3.5469 C.ar    1  UNL1        0.0027
     19 C          61.3397   91.2099    4.7879 C.ar    1  UNL1       -0.0032
     20 C          59.8834   91.0653    5.1175 C.ar    1  UNL1       -0.0117
     21 C          61.1409   93.2580    1.3944 C.ar    1  UNL1        0.1622
     22 N          61.4098   94.7327    1.4472 N.ar    1  UNL1       -0.2250
     23 C          61.8289   95.4635    0.2062 C.ar    1  UNL1        0.1022
     24 C          61.9790   94.7196   -1.0877 C.ar    1  UNL1        0.0414
     25 C          61.7101   93.2449   -1.1405 C.ar    1  UNL1        0.1022
     26 N          61.2910   92.5141    0.1006 N.ar    1  UNL1       -0.2250
     27 C          62.2057   85.1877   12.8943 C.3     1  UNL1        0.1116
     28 C          63.4166   81.5213   10.5832 C.ar    1  UNL1        0.1387
     29 C          62.7427   81.3793   11.9157 C.ar    1  UNL1        0.0366
     30 C          62.3391   82.6014   12.6861 C.ar    1  UNL1       -0.0007
     31 C          62.6094   83.9655   12.1239 C.ar    1  UNL1       -0.0129
     32 C          63.2832   84.1076   10.7914 C.ar    1  UNL1       -0.0007
     33 C          63.6869   82.8855   10.0210 C.ar    1  UNL1        0.0366
     34 C          62.8159   79.2189    9.5400 C.3     1  UNL1        0.2525
     35 O          63.8202   80.2992    9.8128 O.3     1  UNL1       -0.4714
@<TRIPOS>BOND
     1    34    35    1
     2    35    28    1
     3    28    29   ar
     4    29    30   ar
     5    30    31   ar
     6    31    27    1
     7    27     1    1
     8     1     2    2
     9     1     3   am
    10     3     4    1
    11     4     5    1
    12     5     6    1
    13     6     7    1
    14     7     8    1
    15     6     9    1
    16     9    10    1
    17    12    10    1
    18    12    13    1
    19    13    14    1
    20    14    15    1
    21    15    16   ar
    22    16    17   ar
    23    17    21    1
    24    21    22   ar
    25    22    23   ar
    26    23    24   ar
    27    24    25   ar
    28    25    26   ar
    29    17    18   ar
    30    18    19   ar
    31    19    20   ar
    32    10    11    1
    33    31    32   ar
    34    32    33   ar
    35    33    28   ar
    36     8     3    1
    37    20    12    1
    38    11     6    1
    39    20    15   ar
    40    26    21   ar
@<TRIPOS>MOLECULE
*****
 35 40 0 0 0
SMALL
GASTEIGER

@<TRIPOS>ATOM
      1 C          62.3935   84.8738   11.2718 C.2     1  UNL1        0.2301
      2 O          62.9806   83.5903   10.7640 O.2     1  UNL1       -0.2745
      3 N          61.7688   85.8438   10.3131 N.am    1  UNL1       -0.2793
      4 C          61.7311   85.5302    8.8468 C.3     1  UNL1        0.0935
      5 C          61.1064   86.5002    7.8882 C.3     1  UNL1        0.0242
      6 C          60.5193   87.7837    8.3960 C.3     1  UNL1        0.0328
      7 C          60.5570   88.0973    9.8624 C.3     1  UNL1        0.0242
      8 C          61.1817   87.1274   10.8209 C.3     1  UNL1        0.0935
      9 C          60.3019   87.8176    6.9123 C.3     1  UNL1        0.0737
     10 N          59.6358   89.1555    7.0403 N.3     1  UNL1       -0.2702
     11 C          59.8533   89.1216    8.5241 C.3     1  UNL1        0.0737
     12 C          59.0111   90.1255    6.0818 C.3     1  UNL1        0.0801
     13 C          57.5498   90.4491    5.9820 C.3     1  UNL1        0.0251
     14 C          57.3735   91.4658    4.8933 C.3     1  UNL1        0.0278
     15 C          58.7258   91.7704    4.3202 C.ar    1  UNL1       -0.0247
     16 C          59.1664   92.6951    3.2244 C.ar    1  UNL1       -0.0015
     17 C          60.6191   92.7914    2.8631 C.ar    1  UNL1        0.0355
     18 C          61.6311   91.9631    3.5977 C.ar    1  UNL1        0.0027
     19 C          61.1905   91.0384    4.6934 C.ar    1  UNL1       -0.0032
     20 C          59.7378   90.9421    5.0548 C.ar    1  UNL1       -0.0117
     21 C          61.0596   93.7162    1.7673 C.ar    1  UNL1        0.1622
     22 N          62.0065   93.2296    0.7106 N.ar    1  UNL1       -0.2250
     23 C          62.4470   94.1543   -0.3852 C.ar    1  UNL1        0.1022
     24 C          61.9405   95.5657   -0.4243 C.ar    1  UNL1        0.0414
     25 C          60.9936   96.0523    0.6323 C.ar    1  UNL1        0.1022
     26 N          60.5532   95.1275    1.7281 N.ar    1  UNL1       -0.2250
     27 C          62.4312   85.1874   12.7381 C.3     1  UNL1        0.1116
     28 C          64.5226   88.8968   14.1928 C.ar    1  UNL1        0.1387
     29 C          63.6943   88.9441   12.9431 C.ar    1  UNL1        0.0366
     30 C          62.9972   87.7076   12.4582 C.ar    1  UNL1       -0.0007
     31 C          63.1283   86.4240   13.2230 C.ar    1  UNL1       -0.0129
     32 C          63.9566   86.3767   14.4727 C.ar    1  UNL1       -0.0007
     33 C          64.6538   87.6131   14.9576 C.ar    1  UNL1        0.0366
     34 C          65.2580   91.3599   13.8152 C.3     1  UNL1        0.2525
     35 O          65.2198   90.1333   14.6777 O.3     1  UNL1       -0.4714
@<TRIPOS>BOND
     1    34    35    1
     2    35    28    1
     3    28    29   ar
     4    29    30   ar
     5    30    31   ar
     6    31    27    1
     7    27     1    1
     8     1     2    2
     9     1     3   am
    10     3     4    1
    11     4     5    1
    12     5     6    1
    13     6     7    1
    14     7     8    1
    15     6     9    1
    16     9    10    1
    17    12    10    1
    18    12    13    1
    19    13    14    1
    20    14    15    1
    21    15    16   ar
    22    16    17   ar
    23    17    21    1
    24    21    22   ar
    25    22    23   ar
    26    23    24   ar
    27    24    25   ar
    28    25    26   ar
    29    17    18   ar
    30    18    19   ar
    31    19    20   ar
    32    10    11    1
    33    31    32   ar
    34    32    33   ar
    35    33    28   ar
    36     8     3    1
    37    20    12    1
    38    11     6    1
    39    20    15   ar
    40    26    21   ar
@<TRIPOS>MOLECULE
*****
 35 40 0 0 0
SMALL
GASTEIGER

@<TRIPOS>ATOM
      1 C          62.5829   83.7475   15.7138 C.2     1  UNL1        0.2301
      2 O          61.7174   83.4199   16.8944 O.2     1  UNL1       -0.2745
      3 N          63.1013   85.1428   15.5281 N.am    1  UNL1       -0.2793
      4 C          62.7542   86.2105   16.5228 C.3     1  UNL1        0.0935
      5 C          63.2726   87.6057   16.3370 C.3     1  UNL1        0.0242
      6 C          64.1381   87.9332   15.1565 C.3     1  UNL1        0.0328
      7 C          64.4851   86.8656   14.1617 C.3     1  UNL1        0.0242
      8 C          63.9667   85.4703   14.3475 C.3     1  UNL1        0.0935
      9 C          64.0097   89.2220   15.9132 C.3     1  UNL1        0.0737
     10 N          64.8712   89.9065   14.8937 N.3     1  UNL1       -0.2702
     11 C          64.9997   88.6177   14.1371 C.3     1  UNL1        0.0737
     12 C          65.3897   91.3017   14.7079 C.3     1  UNL1        0.0801
     13 C          65.8863   92.2096   15.7938 C.3     1  UNL1        0.0251
     14 C          66.3060   93.5030   15.1606 C.3     1  UNL1        0.0278
     15 C          66.0688   93.3945   13.6835 C.ar    1  UNL1       -0.0247
     16 C          66.2953   94.3587   12.5571 C.ar    1  UNL1       -0.0015
     17 C          65.9554   93.9625   11.1508 C.ar    1  UNL1        0.0355
     18 C          65.3891   92.6020   10.8711 C.ar    1  UNL1        0.0027
     19 C          65.1626   91.6378   11.9975 C.ar    1  UNL1       -0.0032
     20 C          65.5024   92.0340   13.4038 C.ar    1  UNL1       -0.0117
     21 C          66.1819   94.9268   10.0244 C.ar    1  UNL1        0.1622
     22 N          65.1017   95.8917    9.6343 N.ar    1  UNL1       -0.2250
     23 C          65.3283   96.8559    8.5079 C.ar    1  UNL1        0.1022
     24 C          66.6352   96.8554    7.7715 C.ar    1  UNL1        0.0414
     25 C          67.7154   95.8905    8.1616 C.ar    1  UNL1        0.1022
     26 N          67.4888   94.9262    9.2881 N.ar    1  UNL1       -0.2250
     27 C          62.9299   82.6798   14.7191 C.3     1  UNL1        0.1116
     28 C          63.5351   83.7488   10.3900 C.ar    1  UNL1        0.1387
     29 C          62.5158   84.4842   11.2087 C.ar    1  UNL1        0.0366
     30 C          62.3141   84.1279   12.6517 C.ar    1  UNL1       -0.0007
     31 C          63.1316   83.0362   13.2760 C.ar    1  UNL1       -0.0129
     32 C          64.1508   82.3007   12.4573 C.ar    1  UNL1       -0.0007
     33 C          64.3525   82.6570   11.0142 C.ar    1  UNL1        0.0366
     34 C          62.8911   85.1688    8.3118 C.3     1  UNL1        0.2525
     35 O          63.7368   84.1051    8.9469 O.3     1  UNL1       -0.4714
@<TRIPOS>BOND
     1    34    35    1
     2    35    28    1
     3    28    29   ar
     4    29    30   ar
     5    30    31   ar
     6    31    27    1
     7    27     1    1
     8     1     2    2
     9     1     3   am
    10     3     4    1
    11     4     5    1
    12     5     6    1
    13     6     7    1
    14     7     8    1
    15     6     9    1
    16     9    10    1
    17    12    10    1
    18    12    13    1
    19    13    14    1
    20    14    15    1
    21    15    16   ar
    22    16    17   ar
    23    17    21    1
    24    21    22   ar
    25    22    23   ar
    26    23    24   ar
    27    24    25   ar
    28    25    26   ar
    29    17    18   ar
    30    18    19   ar
    31    19    20   ar
    32    10    11    1
    33    31    32   ar
    34    32    33   ar
    35    33    28   ar
    36     8     3    1
    37    20    12    1
    38    11     6    1
    39    20    15   ar
    40    26    21   ar
@<TRIPOS>MOLECULE
*****
 35 40 0 0 0
SMALL
GASTEIGER

@<TRIPOS>ATOM
      1 C          59.3427   88.7082    7.3108 C.2     1  UNL1        0.2301
      2 O          57.9793   88.2608    7.7477 O.2     1  UNL1       -0.2745
      3 N          59.4829   89.7708    6.2614 N.am    1  UNL1       -0.2793
      4 C          58.2597   90.3861    5.6490 C.3     1  UNL1        0.0935
      5 C          58.3999   91.4487    4.5996 C.3     1  UNL1        0.0242
      6 C          59.7633   91.8960    4.1627 C.3     1  UNL1        0.0328
      7 C          60.9865   91.2808    4.7752 C.3     1  UNL1        0.0242
      8 C          60.8463   90.2182    5.8245 C.3     1  UNL1        0.0935
      9 C          58.8064   92.7160    3.3490 C.3     1  UNL1        0.0737
     10 N          59.9616   93.3989    2.6786 N.3     1  UNL1       -0.2702
     11 C          60.9184   92.5789    3.4923 C.3     1  UNL1        0.0737
     12 C          60.1018   94.4615    1.6293 C.3     1  UNL1        0.0801
     13 C          60.2266   95.9354    1.8782 C.3     1  UNL1        0.0251
     14 C          60.3437   96.6216    0.5495 C.3     1  UNL1        0.0278
     15 C          60.2914   95.5718   -0.5205 C.ar    1  UNL1       -0.0247
     16 C          60.3605   95.6590   -2.0164 C.ar    1  UNL1       -0.0015
     17 C          60.2801   94.4112   -2.8449 C.ar    1  UNL1        0.0355
     18 C          60.1306   93.0761   -2.1776 C.ar    1  UNL1        0.0027
     19 C          60.0615   92.9889   -0.6818 C.ar    1  UNL1       -0.0032
     20 C          60.1418   94.2368    0.1468 C.ar    1  UNL1       -0.0117
     21 C          60.3493   94.4984   -4.3408 C.ar    1  UNL1        0.1622
     22 N          59.0870   94.5887   -5.1461 N.ar    1  UNL1       -0.2250
     23 C          59.1562   94.6760   -6.6418 C.ar    1  UNL1        0.1022
     24 C          60.4878   94.6730   -7.3325 C.ar    1  UNL1        0.0414
     25 C          61.7501   94.5828   -6.5273 C.ar    1  UNL1        0.1022
     26 N          61.6809   94.4955   -5.0314 N.ar    1  UNL1       -0.2250
     27 C          60.5660   88.0929    7.9233 C.3     1  UNL1        0.1116
     28 C          61.9745   89.4442   11.9779 C.ar    1  UNL1        0.1387
     29 C          62.5190   88.1824   11.3769 C.ar    1  UNL1        0.0366
     30 C          62.0495   87.7319   10.0254 C.ar    1  UNL1       -0.0007
     31 C          61.0355   88.5434    9.2749 C.ar    1  UNL1       -0.0129
     32 C          60.4910   89.8052    9.8759 C.ar    1  UNL1       -0.0007
     33 C          60.9605   90.2557   11.2274 C.ar    1  UNL1        0.0366
     34 C          63.8376   90.4220   13.5020 C.3     1  UNL1        0.2525
     35 O          62.4440   89.8946   13.3295 O.3     1  UNL1       -0.4714
@<TRIPOS>BOND
     1    34    35    1
     2    35    28    1
     3    28    29   ar
     4    29    30   ar
     5    30    31   ar
     6    31    27    1
     7    27     1    1
     8     1     2    2
     9     1     3   am
    10     3     4    1
    11     4     5    1
    12     5     6    1
    13     6     7    1
    14     7     8    1
    15     6     9    1
    16     9    10    1
    17    12    10    1
    18    12    13    1
    19    13    14    1
    20    14    15    1
    21    15    16   ar
    22    16    17   ar
    23    17    21    1
    24    21    22   ar
    25    22    23   ar
    26    23    24   ar
    27    24    25   ar
    28    25    26   ar
    29    17    18   ar
    30    18    19   ar
    31    19    20   ar
    32    10    11    1
    33    31    32   ar
    34    32    33   ar
    35    33    28   ar
    36     8     3    1
    37    20    12    1
    38    11     6    1
    39    20    15   ar
    40    26    21   ar
