@<TRIPOS>MOLECULE
*****
 32 34 0 0 0
SMALL
GASTEIGER

@<TRIPOS>ATOM
      1 C          63.5358   84.9057   13.6061 C.ar    1  UNL1        0.0053
      2 C          64.4512   85.3929   14.6899 C.ar    1  UNL1        0.0033
      3 C          64.7732   86.8538   14.7991 C.ar    1  UNL1        0.0382
      4 C          64.1799   87.8275   13.8245 C.ar    1  UNL1        0.1524
      5 C          63.2645   87.3403   12.7407 C.ar    1  UNL1        0.0881
      6 C          62.9425   85.8794   12.6315 C.ar    1  UNL1        0.0181
      7 N          62.6712   88.3140   11.7661 N.am    1  UNL1       -0.2531
      8 C          62.9933   89.7749   11.8753 C.2     1  UNL1        0.2656
      9 O          62.4000   90.7486   10.9007 O.2     1  UNL1       -0.2708
     10 C          63.9087   90.2622   12.9592 C.3     1  UNL1        0.2012
     11 C          64.7154   91.2008   13.8068 C.3     1  UNL1        0.0532
     12 C          63.5956   91.5618   12.2789 C.3     1  UNL1        0.0532
     13 O          64.5020   89.2885   13.9338 O.3     1  UNL1       -0.4727
     14 C          63.6594   82.6663   12.2947 C.ar    1  UNL1        0.0645
     15 N          63.3374   81.2054   12.1854 N.ar    1  UNL1       -0.2183
     16 C          62.5695   80.5228   13.2784 C.ar    1  UNL1        0.2145
     17 N          62.2474   79.0619   13.1691 N.pl3   1  UNL1       -0.3274
     18 N          62.1237   81.3012   14.4806 N.ar    1  UNL1       -0.1995
     19 C          62.4458   82.7622   14.5899 C.ar    1  UNL1        0.1293
     20 N          62.0000   83.5406   15.7921 N.pl3   1  UNL1       -0.3425
     21 C          63.2137   83.4447   13.4969 C.ar    1  UNL1        0.0449
     22 H          62.5400   78.5510   12.3800 H       1  UNL1        0.1452
     23 H          61.7434   78.6140   13.8865 H       1  UNL1        0.1452
     24 H          61.4961   83.0927   16.5094 H       1  UNL1        0.1437
     25 H          62.2114   84.4995   15.8638 H       1  UNL1        0.1437
     26 C          63.8189   83.4992    9.8389 C.3     1  UNL1        0.0067
     27 C          64.4273   83.3488   11.2017 C.3     1  UNL1        0.0460
     28 C          61.7558   87.8268   10.6824 C.3     1  UNL1        0.1010
     29 C          62.3272   87.2490    9.4215 C.3     1  UNL1        0.0539
     30 C          61.5409   86.2432    8.6339 C.3     1  UNL1        0.1440
     31 O          60.0466   86.1966    8.7568 O.3     1  UNL1       -0.3510
     32 C          59.1870   86.8121    7.6929 C.3     1  UNL1        0.1741
@<TRIPOS>BOND
     1    26    27    1
     2    27    14    1
     3    14    15   ar
     4    15    16   ar
     5    16    17    1
     6    16    18   ar
     7    18    19   ar
     8    19    20    1
     9    19    21   ar
    10    21     1    1
    11     1     2   ar
    12     2     3   ar
    13     3     4   ar
    14     4     5   ar
    15     5     6   ar
    16     5     7    1
    17     7    28    1
    18    28    29    1
    19    29    30    1
    20    30    31    1
    21    31    32    1
    22     7     8   am
    23     8     9    2
    24     8    10    1
    25    10    11    1
    26    10    12    1
    27    10    13    1
    28    21    14   ar
    29     6     1   ar
    30    13     4    1
    31    17    22    1
    32    17    23    1
    33    20    24    1
    34    20    25    1
@<TRIPOS>MOLECULE
*****
 32 34 0 0 0
SMALL
GASTEIGER

@<TRIPOS>ATOM
      1 C          63.0893   89.1399   12.1196 C.ar    1  UNL1        0.0053
      2 C          63.3319   88.5331   13.4697 C.ar    1  UNL1        0.0033
      3 C          64.2160   89.2333   14.4587 C.ar    1  UNL1        0.0382
      4 C          64.8575   90.5402   14.0975 C.ar    1  UNL1        0.1524
      5 C          64.6149   91.1469   12.7474 C.ar    1  UNL1        0.0881
      6 C          63.7308   90.4468   11.7584 C.ar    1  UNL1        0.0181
      7 N          65.2564   92.4539   12.3862 N.am    1  UNL1       -0.2531
      8 C          66.1405   93.1540   13.3752 C.2     1  UNL1        0.2656
      9 O          66.7819   94.4609   13.0140 O.2     1  UNL1       -0.2708
     10 C          66.3831   92.5473   14.7254 C.3     1  UNL1        0.2012
     11 C          66.9123   92.3734   16.1181 C.3     1  UNL1        0.0532
     12 C          67.2084   93.7938   14.8479 C.3     1  UNL1        0.0532
     13 O          65.7416   91.2403   15.0866 O.3     1  UNL1       -0.4727
     14 C          62.1452   86.9411   11.1076 C.ar    1  UNL1        0.0645
     15 N          61.2611   86.2409   10.1186 N.ar    1  UNL1       -0.2183
     16 C          60.4369   87.0394    9.1525 C.ar    1  UNL1        0.2145
     17 N          59.5528   86.3392    8.1635 N.pl3   1  UNL1       -0.3274
     18 N          60.4968   88.5380    9.1755 N.ar    1  UNL1       -0.1995
     19 C          61.3810   89.2382   10.1646 C.ar    1  UNL1        0.1293
     20 N          61.4409   90.7368   10.1875 N.pl3   1  UNL1       -0.3425
     21 C          62.2051   88.4397   11.1305 C.ar    1  UNL1        0.0449
     22 H          59.5135   85.3556    8.1485 H       1  UNL1        0.1452
     23 H          59.0119   86.8632    7.5295 H       1  UNL1        0.1452
     24 H          60.9000   91.2608    9.5535 H       1  UNL1        0.1437
     25 H          62.0212   91.1963   10.8366 H       1  UNL1        0.1437
     26 C          62.7334   84.6687   12.2213 C.3     1  UNL1        0.0067
     27 C          62.9694   86.1426   12.0736 C.3     1  UNL1        0.0460
     28 C          65.0137   93.0606   11.0361 C.3     1  UNL1        0.1010
     29 C          66.0665   92.9672    9.9716 C.3     1  UNL1        0.0539
     30 C          66.9714   94.1340    9.7073 C.3     1  UNL1        0.1440
     31 O          68.4489   93.9195    9.5626 O.3     1  UNL1       -0.3510
     32 C          68.9840   92.5455    9.2876 C.3     1  UNL1        0.1741
@<TRIPOS>BOND
     1    26    27    1
     2    27    14    1
     3    14    15   ar
     4    15    16   ar
     5    16    17    1
     6    16    18   ar
     7    18    19   ar
     8    19    20    1
     9    19    21   ar
    10    21     1    1
    11     1     2   ar
    12     2     3   ar
    13     3     4   ar
    14     4     5   ar
    15     5     6   ar
    16     5     7    1
    17     7    28    1
    18    28    29    1
    19    29    30    1
    20    30    31    1
    21    31    32    1
    22     7     8   am
    23     8     9    2
    24     8    10    1
    25    10    11    1
    26    10    12    1
    27    10    13    1
    28    21    14   ar
    29     6     1   ar
    30    13     4    1
    31    17    22    1
    32    17    23    1
    33    20    24    1
    34    20    25    1
@<TRIPOS>MOLECULE
*****
 32 34 0 0 0
SMALL
GASTEIGER

@<TRIPOS>ATOM
      1 C          62.9335   90.4032   12.0813 C.ar    1  UNL1        0.0053
      2 C          62.0231   91.2901   11.2846 C.ar    1  UNL1        0.0033
      3 C          61.1604   90.7043   10.2064 C.ar    1  UNL1        0.0382
      4 C          61.2081   89.2318    9.9248 C.ar    1  UNL1        0.1524
      5 C          62.1184   88.3449   10.7215 C.ar    1  UNL1        0.0881
      6 C          62.9811   88.9307   11.7997 C.ar    1  UNL1        0.0181
      7 N          62.1661   86.8724   10.4399 N.am    1  UNL1       -0.2531
      8 C          61.3034   86.2867    9.3616 C.2     1  UNL1        0.2656
      9 O          61.3511   84.8141    9.0800 O.2     1  UNL1       -0.2708
     10 C          60.3930   87.1735    8.5649 C.3     1  UNL1        0.2012
     11 C          59.3766   87.6005    7.5478 C.3     1  UNL1        0.0532
     12 C          60.0877   85.8493    7.9301 C.3     1  UNL1        0.0532
     13 O          60.3453   88.6461    8.8465 O.3     1  UNL1       -0.4727
     14 C          64.9522   91.8735   12.7975 C.ar    1  UNL1        0.0645
     15 N          65.8149   92.4592   13.8757 N.ar    1  UNL1       -0.2183
     16 C          65.5217   92.1603   15.3161 C.ar    1  UNL1        0.2145
     17 N          66.3845   92.7460   16.3943 N.pl3   1  UNL1       -0.3274
     18 N          64.3657   91.2757   15.6782 N.ar    1  UNL1       -0.1995
     19 C          63.5030   90.6900   14.5999 C.ar    1  UNL1        0.1293
     20 N          62.3470   89.8054   14.9620 N.pl3   1  UNL1       -0.3425
     21 C          63.7962   90.9889   13.1596 C.ar    1  UNL1        0.0449
     22 H          67.1432   93.3266   16.1567 H       1  UNL1        0.1452
     23 H          66.1920   92.5498   17.3397 H       1  UNL1        0.1452
     24 H          62.1545   89.6092   15.9074 H       1  UNL1        0.1437
     25 H          61.7807   89.4210   14.2543 H       1  UNL1        0.1437
     26 C          66.4034   93.0544   10.9948 C.3     1  UNL1        0.0067
     27 C          65.2454   92.1725   11.3571 C.3     1  UNL1        0.0460
     28 C          63.0765   85.9855   11.2365 C.3     1  UNL1        0.1010
     29 C          62.5126   85.1025   12.3100 C.3     1  UNL1        0.0539
     30 C          62.7166   83.6179   12.2439 C.3     1  UNL1        0.1440
     31 O          62.6088   82.7898   13.4899 O.3     1  UNL1       -0.3510
     32 C          62.4681   83.4587   14.8251 C.3     1  UNL1        0.1741
@<TRIPOS>BOND
     1    26    27    1
     2    27    14    1
     3    14    15   ar
     4    15    16   ar
     5    16    17    1
     6    16    18   ar
     7    18    19   ar
     8    19    20    1
     9    19    21   ar
    10    21     1    1
    11     1     2   ar
    12     2     3   ar
    13     3     4   ar
    14     4     5   ar
    15     5     6   ar
    16     5     7    1
    17     7    28    1
    18    28    29    1
    19    29    30    1
    20    30    31    1
    21    31    32    1
    22     7     8   am
    23     8     9    2
    24     8    10    1
    25    10    11    1
    26    10    12    1
    27    10    13    1
    28    21    14   ar
    29     6     1   ar
    30    13     4    1
    31    17    22    1
    32    17    23    1
    33    20    24    1
    34    20    25    1
@<TRIPOS>MOLECULE
*****
 32 34 0 0 0
SMALL
GASTEIGER

@<TRIPOS>ATOM
      1 C          62.4595   89.3610   12.1811 C.ar    1  UNL1        0.0053
      2 C          62.2402   89.1007   13.6419 C.ar    1  UNL1        0.0033
      3 C          63.0555   89.8343   14.6652 C.ar    1  UNL1        0.0382
      4 C          64.0901   90.8284   14.2275 C.ar    1  UNL1        0.1524
      5 C          64.3094   91.0887   12.7667 C.ar    1  UNL1        0.0881
      6 C          63.4941   90.3551   11.7435 C.ar    1  UNL1        0.0181
      7 N          65.3440   92.0828   12.3291 N.am    1  UNL1       -0.2531
      8 C          66.1592   92.8165   13.3523 C.2     1  UNL1        0.2656
      9 O          67.1938   93.8105   12.9147 O.2     1  UNL1       -0.2708
     10 C          65.9400   92.5561   14.8132 C.3     1  UNL1        0.2012
     11 C          66.0991   92.6526   16.3016 C.3     1  UNL1        0.0532
     12 C          67.0298   93.5836   14.8925 C.3     1  UNL1        0.0532
     13 O          64.9054   91.5620   15.2508 O.3     1  UNL1       -0.4727
     14 C          60.5301   89.3313   10.4414 C.ar    1  UNL1        0.0645
     15 N          59.7148   88.5977    9.4181 N.ar    1  UNL1       -0.2183
     16 C          60.0136   87.1601    9.1113 C.ar    1  UNL1        0.2145
     17 N          59.1983   86.4265    8.0880 N.pl3   1  UNL1       -0.3274
     18 N          61.1277   86.4561    9.8277 N.ar    1  UNL1       -0.1995
     19 C          61.9430   87.1898   10.8510 C.ar    1  UNL1        0.1293
     20 N          63.0571   86.4859   11.5675 N.pl3   1  UNL1       -0.3425
     21 C          61.6442   88.6274   11.1578 C.ar    1  UNL1        0.0449
     22 H          58.4671   86.8885    7.6178 H       1  UNL1        0.1452
     23 H          59.3944   85.4830    7.8866 H       1  UNL1        0.1452
     24 H          63.2532   85.5424   11.3661 H       1  UNL1        0.1437
     25 H          63.5922   86.9674   12.2391 H       1  UNL1        0.1437
     26 C          59.0193   91.1271   11.5561 C.3     1  UNL1        0.0067
     27 C          60.2313   90.7689   10.7482 C.3     1  UNL1        0.0460
     28 C          65.5633   92.3432   10.8683 C.3     1  UNL1        0.1010
     29 C          65.6627   93.7525   10.3643 C.3     1  UNL1        0.0539
     30 C          66.8397   94.1707    9.5337 C.3     1  UNL1        0.1440
     31 O          68.2120   93.6674    9.8705 O.3     1  UNL1       -0.3510
     32 C          68.7714   92.4760    9.1512 C.3     1  UNL1        0.1741
@<TRIPOS>BOND
     1    26    27    1
     2    27    14    1
     3    14    15   ar
     4    15    16   ar
     5    16    17    1
     6    16    18   ar
     7    18    19   ar
     8    19    20    1
     9    19    21   ar
    10    21     1    1
    11     1     2   ar
    12     2     3   ar
    13     3     4   ar
    14     4     5   ar
    15     5     6   ar
    16     5     7    1
    17     7    28    1
    18    28    29    1
    19    29    30    1
    20    30    31    1
    21    31    32    1
    22     7     8   am
    23     8     9    2
    24     8    10    1
    25    10    11    1
    26    10    12    1
    27    10    13    1
    28    21    14   ar
    29     6     1   ar
    30    13     4    1
    31    17    22    1
    32    17    23    1
    33    20    24    1
    34    20    25    1
@<TRIPOS>MOLECULE
*****
 32 34 0 0 0
SMALL
GASTEIGER

@<TRIPOS>ATOM
      1 C          64.5481   90.7443   13.9986 C.ar    1  UNL1        0.0053
      2 C          64.1679   91.3905   15.2978 C.ar    1  UNL1        0.0033
      3 C          63.6770   90.5492   16.4384 C.ar    1  UNL1        0.0382
      4 C          63.5663   89.0617   16.2800 C.ar    1  UNL1        0.1524
      5 C          63.9466   88.4155   14.9809 C.ar    1  UNL1        0.0881
      6 C          64.4375   89.2568   13.8402 C.ar    1  UNL1        0.0181
      7 N          63.8360   86.9280   14.8224 N.am    1  UNL1       -0.2531
      8 C          63.3451   86.0867   15.9631 C.2     1  UNL1        0.2656
      9 O          63.2345   84.5992   15.8046 O.2     1  UNL1       -0.2708
     10 C          62.9648   86.7329   17.2623 C.3     1  UNL1        0.2012
     11 C          62.4886   86.8803   18.6771 C.3     1  UNL1        0.0532
     12 C          62.6888   85.2966   17.5952 C.3     1  UNL1        0.0532
     13 O          63.0754   88.2204   17.4207 O.3     1  UNL1       -0.4727
     14 C          66.3953   92.2229   12.9254 C.ar    1  UNL1        0.0645
     15 N          66.8862   93.0642   11.7847 N.ar    1  UNL1       -0.2183
     16 C          66.0210   93.2682   10.5764 C.ar    1  UNL1        0.2145
     17 N          66.5119   94.1094    9.4358 N.pl3   1  UNL1       -0.3274
     18 N          64.6648   92.6308   10.5089 N.ar    1  UNL1       -0.1995
     19 C          64.1739   91.7895   11.6497 C.ar    1  UNL1        0.1293
     20 N          62.8177   91.1522   11.5822 N.pl3   1  UNL1       -0.3425
     21 C          65.0391   91.5856   12.8579 C.ar    1  UNL1        0.0449
     22 H          67.4020   94.5277    9.4801 H       1  UNL1        0.1452
     23 H          65.9441   94.2433    8.6428 H       1  UNL1        0.1452
     24 H          62.2498   91.2860   10.7892 H       1  UNL1        0.1437
     25 H          62.4954   90.6000   12.3309 H       1  UNL1        0.1437
     26 C          67.5328   93.1644   15.0631 C.3     1  UNL1        0.0067
     27 C          67.2605   92.0190   14.1337 C.3     1  UNL1        0.0460
     28 C          64.2163   86.2818   13.5233 C.3     1  UNL1        0.1010
     29 C          63.1539   85.7198   12.6259 C.3     1  UNL1        0.0539
     30 C          63.2022   84.2768   12.2187 C.3     1  UNL1        0.1440
     31 O          64.2390   83.3660   12.8065 O.3     1  UNL1       -0.3510
     32 C          63.9045   81.9310   13.0868 C.3     1  UNL1        0.1741
@<TRIPOS>BOND
     1    26    27    1
     2    27    14    1
     3    14    15   ar
     4    15    16   ar
     5    16    17    1
     6    16    18   ar
     7    18    19   ar
     8    19    20    1
     9    19    21   ar
    10    21     1    1
    11     1     2   ar
    12     2     3   ar
    13     3     4   ar
    14     4     5   ar
    15     5     6   ar
    16     5     7    1
    17     7    28    1
    18    28    29    1
    19    29    30    1
    20    30    31    1
    21    31    32    1
    22     7     8   am
    23     8     9    2
    24     8    10    1
    25    10    11    1
    26    10    12    1
    27    10    13    1
    28    21    14   ar
    29     6     1   ar
    30    13     4    1
    31    17    22    1
    32    17    23    1
    33    20    24    1
    34    20    25    1
@<TRIPOS>MOLECULE
*****
 32 34 0 0 0
SMALL
GASTEIGER

@<TRIPOS>ATOM
      1 C          64.5547   90.7452   13.9508 C.ar    1  UNL1        0.0053
      2 C          64.1836   91.3966   15.2500 C.ar    1  UNL1        0.0033
      3 C          63.6927   90.5608   16.3947 C.ar    1  UNL1        0.0382
      4 C          63.5729   89.0736   16.2402 C.ar    1  UNL1        0.1524
      5 C          63.9440   88.4222   14.9410 C.ar    1  UNL1        0.0881
      6 C          64.4349   89.2580   13.7963 C.ar    1  UNL1        0.0181
      7 N          63.8241   86.9350   14.7865 N.am    1  UNL1       -0.2531
      8 C          63.3332   86.0992   15.9312 C.2     1  UNL1        0.2656
      9 O          63.2134   84.6120   15.7767 O.2     1  UNL1       -0.2708
     10 C          62.9621   86.7506   17.2305 C.3     1  UNL1        0.2012
     11 C          62.4928   86.9040   18.6469 C.3     1  UNL1        0.0532
     12 C          62.6793   85.3167   17.5679 C.3     1  UNL1        0.0532
     13 O          63.0820   88.2378   17.3850 O.3     1  UNL1       -0.4727
     14 C          64.2179   91.7087   11.5615 C.ar    1  UNL1        0.0645
     15 N          64.7088   92.5445   10.4168 N.ar    1  UNL1       -0.2183
     16 C          66.0274   93.2526   10.5165 C.ar    1  UNL1        0.2145
     17 N          66.5183   94.0884    9.3717 N.pl3   1  UNL1       -0.3274
     18 N          66.8551   93.1250   11.7609 N.ar    1  UNL1       -0.1995
     19 C          66.3642   92.2891   12.9057 C.ar    1  UNL1        0.1293
     20 N          67.1918   92.1615   14.1501 N.pl3   1  UNL1       -0.3425
     21 C          65.0456   91.5810   12.8060 C.ar    1  UNL1        0.0449
     22 H          65.9750   94.1722    8.5549 H       1  UNL1        0.1452
     23 H          67.3837   94.5532    9.4371 H       1  UNL1        0.1452
     24 H          68.0573   92.6262   14.2156 H       1  UNL1        0.1437
     25 H          66.8696   91.6129   14.9015 H       1  UNL1        0.1437
     26 C          62.7031   89.9212   10.4389 C.3     1  UNL1        0.0067
     27 C          62.8993   91.0005   11.4619 C.3     1  UNL1        0.0460
     28 C          64.1952   86.2836   13.4873 C.3     1  UNL1        0.1010
     29 C          63.1222   85.8330   12.5408 C.3     1  UNL1        0.0539
     30 C          62.9946   84.3806   12.1884 C.3     1  UNL1        0.1440
     31 O          64.2061   83.6009   11.7709 O.3     1  UNL1       -0.3510
     32 C          64.1833   82.8023   10.5013 C.3     1  UNL1        0.1741
@<TRIPOS>BOND
     1    26    27    1
     2    27    14    1
     3    14    15   ar
     4    15    16   ar
     5    16    17    1
     6    16    18   ar
     7    18    19   ar
     8    19    20    1
     9    19    21   ar
    10    21     1    1
    11     1     2   ar
    12     2     3   ar
    13     3     4   ar
    14     4     5   ar
    15     5     6   ar
    16     5     7    1
    17     7    28    1
    18    28    29    1
    19    29    30    1
    20    30    31    1
    21    31    32    1
    22     7     8   am
    23     8     9    2
    24     8    10    1
    25    10    11    1
    26    10    12    1
    27    10    13    1
    28    21    14   ar
    29     6     1   ar
    30    13     4    1
    31    17    22    1
    32    17    23    1
    33    20    24    1
    34    20    25    1
@<TRIPOS>MOLECULE
*****
 32 34 0 0 0
SMALL
GASTEIGER

@<TRIPOS>ATOM
      1 C          63.4626   83.6230   12.4662 C.ar    1  UNL1        0.0053
      2 C          64.1490   83.7654   13.7923 C.ar    1  UNL1        0.0033
      3 C          64.3490   85.1261   14.3910 C.ar    1  UNL1        0.0382
      4 C          63.8626   86.3444   13.6636 C.ar    1  UNL1        0.1524
      5 C          63.1762   86.2020   12.3375 C.ar    1  UNL1        0.0881
      6 C          62.9762   84.8413   11.7388 C.ar    1  UNL1        0.0181
      7 N          62.6898   87.4203   11.6101 N.am    1  UNL1       -0.2531
      8 C          62.8897   88.7810   12.2088 C.2     1  UNL1        0.2656
      9 O          62.4033   89.9993   11.4813 O.2     1  UNL1       -0.2708
     10 C          63.5762   88.9234   13.5349 C.3     1  UNL1        0.2012
     11 C          64.1646   89.5665   14.7556 C.3     1  UNL1        0.0532
     12 C          63.2941   90.3650   13.2315 C.3     1  UNL1        0.0532
     13 O          64.0626   87.7051   14.2623 O.3     1  UNL1       -0.4727
     14 C          62.5741   81.1891   12.6575 C.ar    1  UNL1        0.0645
     15 N          62.3741   79.8284   12.0588 N.ar    1  UNL1       -0.2183
     16 C          62.8626   79.5408   10.6700 C.ar    1  UNL1        0.2145
     17 N          62.6626   78.1801   10.0713 N.pl3   1  UNL1       -0.3274
     18 N          63.5512   80.6140    9.8800 N.ar    1  UNL1       -0.1995
     19 C          63.7512   81.9747   10.4787 C.ar    1  UNL1        0.1293
     20 N          64.4398   83.0479    9.6887 N.pl3   1  UNL1       -0.3425
     21 C          63.2626   82.2622   11.8675 C.ar    1  UNL1        0.0449
     22 H          62.2107   77.4757   10.5899 H       1  UNL1        0.1452
     23 H          62.9833   77.9914    9.1599 H       1  UNL1        0.1452
     24 H          64.7604   82.8592    8.7772 H       1  UNL1        0.1437
     25 H          64.5710   83.9410   10.0816 H       1  UNL1        0.1437
     26 C          60.6900   81.0967   14.4441 C.3     1  UNL1        0.0067
     27 C          62.0855   81.4766   14.0463 C.3     1  UNL1        0.0460
     28 C          62.0034   87.2779   10.2840 C.3     1  UNL1        0.1010
     29 C          60.5372   87.5707   10.1631 C.3     1  UNL1        0.0539
     30 C          60.0588   88.6221    9.2062 C.3     1  UNL1        0.1440
     31 O          59.3154   88.2246    7.9654 O.3     1  UNL1       -0.3510
     32 C          59.0975   86.7736    7.6541 C.3     1  UNL1        0.1741
@<TRIPOS>BOND
     1    26    27    1
     2    27    14    1
     3    14    15   ar
     4    15    16   ar
     5    16    17    1
     6    16    18   ar
     7    18    19   ar
     8    19    20    1
     9    19    21   ar
    10    21     1    1
    11     1     2   ar
    12     2     3   ar
    13     3     4   ar
    14     4     5   ar
    15     5     6   ar
    16     5     7    1
    17     7    28    1
    18    28    29    1
    19    29    30    1
    20    30    31    1
    21    31    32    1
    22     7     8   am
    23     8     9    2
    24     8    10    1
    25    10    11    1
    26    10    12    1
    27    10    13    1
    28    21    14   ar
    29     6     1   ar
    30    13     4    1
    31    17    22    1
    32    17    23    1
    33    20    24    1
    34    20    25    1
@<TRIPOS>MOLECULE
*****
 32 34 0 0 0
SMALL
GASTEIGER

@<TRIPOS>ATOM
      1 C          63.6301   90.6899   12.2709 C.ar    1  UNL1        0.0053
      2 C          62.9435   91.5436   11.2464 C.ar    1  UNL1        0.0033
      3 C          62.0798   90.9078   10.1976 C.ar    1  UNL1        0.0382
      4 C          61.9028   89.4185   10.1735 C.ar    1  UNL1        0.1524
      5 C          62.5894   88.5649   11.1980 C.ar    1  UNL1        0.0881
      6 C          63.4531   89.2006   12.2468 C.ar    1  UNL1        0.0181
      7 N          62.4124   87.0756   11.1739 N.am    1  UNL1       -0.2531
      8 C          61.5487   86.4399   10.1251 C.2     1  UNL1        0.2656
      9 O          61.3717   84.9506   10.1010 O.2     1  UNL1       -0.2708
     10 C          60.8620   87.2935    9.1005 C.3     1  UNL1        0.2012
     11 C          60.0113   87.6760    7.9258 C.3     1  UNL1        0.0532
     12 C          60.3896   85.9371    8.6684 C.3     1  UNL1        0.0532
     13 O          61.0390   88.7828    9.1247 O.3     1  UNL1       -0.4727
     14 C          64.2267   91.0621   14.7721 C.ar    1  UNL1        0.0645
     15 N          65.0904   91.6978   15.8209 N.ar    1  UNL1       -0.2183
     16 C          66.2212   92.5970   15.4174 C.ar    1  UNL1        0.2145
     17 N          67.0849   93.2326   16.4662 N.pl3   1  UNL1       -0.3274
     18 N          66.4883   92.8605   13.9651 N.ar    1  UNL1       -0.1995
     19 C          65.6246   92.2248   12.9162 C.ar    1  UNL1        0.1293
     20 N          65.8917   92.4883   11.4639 N.pl3   1  UNL1       -0.3425
     21 C          64.4938   91.3256   13.3198 C.ar    1  UNL1        0.0449
     22 H          66.9096   93.0597   17.4194 H       1  UNL1        0.1452
     23 H          67.8270   93.8228   16.2013 H       1  UNL1        0.1452
     24 H          66.6338   93.0785   11.1991 H       1  UNL1        0.1437
     25 H          65.3248   92.0711   10.7756 H       1  UNL1        0.1437
     26 C          63.1720   89.3927   16.4605 C.3     1  UNL1        0.0067
     27 C          63.0959   90.1629   15.1756 C.3     1  UNL1        0.0460
     28 C          63.0991   86.2220   12.1985 C.3     1  UNL1        0.1010
     29 C          62.5427   84.8729   12.5453 C.3     1  UNL1        0.0539
     30 C          63.4298   83.8313   13.1605 C.3     1  UNL1        0.1440
     31 O          64.4583   83.1320   12.3220 O.3     1  UNL1       -0.3510
     32 C          64.2728   83.0308   10.8370 C.3     1  UNL1        0.1741
@<TRIPOS>BOND
     1    26    27    1
     2    27    14    1
     3    14    15   ar
     4    15    16   ar
     5    16    17    1
     6    16    18   ar
     7    18    19   ar
     8    19    20    1
     9    19    21   ar
    10    21     1    1
    11     1     2   ar
    12     2     3   ar
    13     3     4   ar
    14     4     5   ar
    15     5     6   ar
    16     5     7    1
    17     7    28    1
    18    28    29    1
    19    29    30    1
    20    30    31    1
    21    31    32    1
    22     7     8   am
    23     8     9    2
    24     8    10    1
    25    10    11    1
    26    10    12    1
    27    10    13    1
    28    21    14   ar
    29     6     1   ar
    30    13     4    1
    31    17    22    1
    32    17    23    1
    33    20    24    1
    34    20    25    1
@<TRIPOS>MOLECULE
*****
 32 34 0 0 0
SMALL
GASTEIGER

@<TRIPOS>ATOM
      1 C          63.4444   85.2768   13.3441 C.ar    1  UNL1        0.0053
      2 C          64.2144   86.0139   14.3994 C.ar    1  UNL1        0.0033
      3 C          64.4105   87.4967   14.2864 C.ar    1  UNL1        0.0382
      4 C          63.8366   88.2424   13.1182 C.ar    1  UNL1        0.1524
      5 C          63.0666   87.5052   12.0629 C.ar    1  UNL1        0.0881
      6 C          62.8705   86.0224   12.1759 C.ar    1  UNL1        0.0181
      7 N          62.4928   88.2508   10.8947 N.am    1  UNL1       -0.2531
      8 C          62.6889   89.7336   10.7818 C.2     1  UNL1        0.2656
      9 O          62.1150   90.4792    9.6135 O.2     1  UNL1       -0.2708
     10 C          63.4589   90.4709   11.8371 C.3     1  UNL1        0.2012
     11 C          64.1078   91.6036   12.5758 C.3     1  UNL1        0.0532
     12 C          63.1104   91.6098   10.9254 C.3     1  UNL1        0.0532
     13 O          64.0327   89.7252   13.0053 O.3     1  UNL1       -0.4727
     14 C          62.3652   83.2339   14.5325 C.ar    1  UNL1        0.0645
     15 N          62.1690   81.7511   14.6454 N.ar    1  UNL1       -0.2183
     16 C          62.8559   80.8282   13.6828 C.ar    1  UNL1        0.2145
     17 N          62.6598   79.3454   13.7958 N.pl3   1  UNL1       -0.3274
     18 N          63.7390   81.3882   12.6074 N.ar    1  UNL1       -0.1995
     19 C          63.9351   82.8711   12.4945 C.ar    1  UNL1        0.1293
     20 N          64.8182   83.4310   11.4190 N.pl3   1  UNL1       -0.3425
     21 C          63.2482   83.7939   13.4570 C.ar    1  UNL1        0.0449
     22 H          62.0802   78.9779   14.5016 H       1  UNL1        0.1452
     23 H          63.1106   78.7397   13.1640 H       1  UNL1        0.1452
     24 H          65.2690   82.8253   10.7872 H       1  UNL1        0.1437
     25 H          64.9469   84.4043   11.3449 H       1  UNL1        0.1437
     26 C          62.4680   84.8414   16.5710 C.3     1  UNL1        0.0067
     27 C          61.6783   84.1568   15.4950 C.3     1  UNL1        0.0460
     28 C          61.7228   87.5136    9.8394 C.3     1  UNL1        0.1010
     29 C          60.2326   87.6633    9.7561 C.3     1  UNL1        0.0539
     30 C          59.4619   86.9210    8.7049 C.3     1  UNL1        0.1440
     31 O          58.7294   87.6780    7.6370 O.3     1  UNL1       -0.3510
     32 C          59.2766   88.9798    7.1311 C.3     1  UNL1        0.1741
@<TRIPOS>BOND
     1    26    27    1
     2    27    14    1
     3    14    15   ar
     4    15    16   ar
     5    16    17    1
     6    16    18   ar
     7    18    19   ar
     8    19    20    1
     9    19    21   ar
    10    21     1    1
    11     1     2   ar
    12     2     3   ar
    13     3     4   ar
    14     4     5   ar
    15     5     6   ar
    16     5     7    1
    17     7    28    1
    18    28    29    1
    19    29    30    1
    20    30    31    1
    21    31    32    1
    22     7     8   am
    23     8     9    2
    24     8    10    1
    25    10    11    1
    26    10    12    1
    27    10    13    1
    28    21    14   ar
    29     6     1   ar
    30    13     4    1
    31    17    22    1
    32    17    23    1
    33    20    24    1
    34    20    25    1
