@<TRIPOS>MOLECULE
*****
 21 23 0 0 0
SMALL
GASTEIGER

@<TRIPOS>ATOM
      1 C          61.7614   86.7561   10.5599 C.3     1  UNL1        0.2337
      2 N          60.8830   87.2957    9.4703 N.ar    1  UNL1       -0.2923
      3 C          60.1460   86.6235    8.3500 C.ar    1  UNL1        0.1796
      4 N          59.4251   87.6818    7.5688 N.ar    1  UNL1       -0.2226
      5 C          59.7165   89.0080    8.2063 C.ar    1  UNL1        0.1148
      6 C          60.6175   88.7693    9.3815 C.ar    1  UNL1        0.0770
      7 C          61.2306   89.7035   10.3823 C.3     1  UNL1        0.1410
      8 N          62.1090   89.1639   11.4719 N.3     1  UNL1       -0.1467
      9 S          62.3745   87.6904   11.5607 S.O2    1  UNL1        0.0628
     10 O          63.1765   88.1707   12.7339 O.2     1  UNL1       -0.1555
     11 O          62.9184   86.3834   12.0569 O.2     1  UNL1       -0.1555
     12 C          62.0269   85.2825   10.6488 C.3     1  UNL1        0.0490
     13 C          63.8402   83.4756   10.2049 C.3     1  UNL1        0.0001
     14 C          63.0273   84.6440    9.7315 C.3     1  UNL1        0.0037
     15 C          63.2148   85.1737    8.3407 C.3     1  UNL1        0.0001
     16 C          62.7221   90.0982   12.4726 C.3     1  UNL1        0.1286
     17 C          63.7700   91.0797   12.0385 C.ar    1  UNL1        0.0251
     18 C          63.9518   91.6192   10.6507 C.ar    1  UNL1        0.0041
     19 C          65.1143   92.5670   10.6704 C.ar    1  UNL1        0.0072
     20 C          65.6509   92.6132   12.0704 C.ar    1  UNL1        0.0352
     21 S          64.8201   91.6941   12.9159 S.2     1  UNL1       -0.0893
@<TRIPOS>BOND
     1    13    14    1
     2    14    15    1
     3    14    12    1
     4    12     1    1
     5     1     2    1
     6     2     3   ar
     7     3     4   ar
     8     4     5   ar
     9     5     6   ar
    10     6     7    1
    11     7     8    1
    12     8    16    1
    13    16    17    1
    14    17    18   ar
    15    18    19   ar
    16    19    20   ar
    17    20    21   ar
    18     8     9    1
    19     9    10    2
    20     9    11    2
    21     9     1    1
    22     6     2   ar
    23    21    17   ar
@<TRIPOS>MOLECULE
*****
 21 23 0 0 0
SMALL
GASTEIGER

@<TRIPOS>ATOM
      1 C          64.1083   91.1877   13.6107 C.3     1  UNL1        0.2337
      2 N          63.2247   90.7313   12.4879 N.ar    1  UNL1       -0.2923
      3 C          61.9946   89.8731   12.4640 C.ar    1  UNL1        0.1796
      4 N          61.5370   89.7587   11.0401 N.ar    1  UNL1       -0.2226
      5 C          62.4841   90.5461   10.1840 C.ar    1  UNL1        0.1148
      6 C          63.5272   91.1472   11.0788 C.ar    1  UNL1        0.0770
      7 C          64.7134   92.0195   10.7926 C.3     1  UNL1        0.1410
      8 N          65.5971   92.4759   11.9154 N.3     1  UNL1       -0.1467
      9 S          65.2946   92.0600   13.3244 S.O2    1  UNL1        0.0628
     10 O          66.5241   92.8878   13.5554 O.2     1  UNL1       -0.1555
     11 O          65.4190   91.9316   14.8138 O.2     1  UNL1       -0.1555
     12 C          63.8059   90.7718   15.0199 C.3     1  UNL1        0.0490
     13 C          64.4673   88.3142   14.4983 C.3     1  UNL1        0.0001
     14 C          63.7924   89.3173   15.3861 C.3     1  UNL1        0.0037
     15 C          63.1042   88.8659   16.6401 C.3     1  UNL1        0.0001
     16 C          66.7834   93.3482   11.6291 C.3     1  UNL1        0.1286
     17 C          66.7441   94.3150   10.4829 C.ar    1  UNL1        0.0251
     18 C          67.4515   94.1551    9.1698 C.ar    1  UNL1        0.0041
     19 C          67.1351   95.3527    8.3240 C.ar    1  UNL1        0.0072
     20 C          66.2321   96.2528    9.1142 C.ar    1  UNL1        0.0352
     21 S          65.9905   95.6115   10.4485 S.2     1  UNL1       -0.0893
@<TRIPOS>BOND
     1    13    14    1
     2    14    15    1
     3    14    12    1
     4    12     1    1
     5     1     2    1
     6     2     3   ar
     7     3     4   ar
     8     4     5   ar
     9     5     6   ar
    10     6     7    1
    11     7     8    1
    12     8    16    1
    13    16    17    1
    14    17    18   ar
    15    18    19   ar
    16    19    20   ar
    17    20    21   ar
    18     8     9    1
    19     9    10    2
    20     9    11    2
    21     9     1    1
    22     6     2   ar
    23    21    17   ar
@<TRIPOS>MOLECULE
*****
 21 23 0 0 0
SMALL
GASTEIGER

@<TRIPOS>ATOM
      1 C          62.1439   88.8033   11.6094 C.3     1  UNL1        0.2337
      2 N          61.2638   88.5354   10.4247 N.ar    1  UNL1       -0.2923
      3 C          60.4951   89.4504    9.5181 C.ar    1  UNL1        0.1796
      4 N          59.7894   88.6067    8.4981 N.ar    1  UNL1       -0.2226
      5 C          60.1220   87.1704    8.7743 C.ar    1  UNL1        0.1148
      6 C          61.0332   87.1263    9.9650 C.ar    1  UNL1        0.0770
      7 C          61.6828   85.9851   10.6901 C.3     1  UNL1        0.1410
      8 N          62.5630   86.2530   11.8748 N.3     1  UNL1       -0.1467
      9 S          62.7935   87.6620   12.3344 S.O2    1  UNL1        0.0628
     10 O          63.6233   86.9208   13.3405 O.2     1  UNL1       -0.1555
     11 O          63.3123   88.8138   13.1435 O.2     1  UNL1       -0.1555
     12 C          62.3745   90.2124   12.0691 C.3     1  UNL1        0.0490
     13 C          63.2784   91.3553    9.9182 C.3     1  UNL1        0.0001
     14 C          63.4008   91.0661   11.3849 C.3     1  UNL1        0.0037
     15 C          64.5493   91.6304   12.1675 C.3     1  UNL1        0.0001
     16 C          63.2126   85.1118   12.5998 C.3     1  UNL1        0.1286
     17 C          63.3060   83.7645   11.9470 C.ar    1  UNL1        0.0251
     18 C          64.0785   83.4393   10.7029 C.ar    1  UNL1        0.0041
     19 C          63.8933   81.9798   10.4106 C.ar    1  UNL1        0.0072
     20 C          63.0065   81.4029   11.4739 C.ar    1  UNL1        0.0352
     21 S          62.6435   82.5060   12.4235 S.2     1  UNL1       -0.0893
@<TRIPOS>BOND
     1    13    14    1
     2    14    15    1
     3    14    12    1
     4    12     1    1
     5     1     2    1
     6     2     3   ar
     7     3     4   ar
     8     4     5   ar
     9     5     6   ar
    10     6     7    1
    11     7     8    1
    12     8    16    1
    13    16    17    1
    14    17    18   ar
    15    18    19   ar
    16    19    20   ar
    17    20    21   ar
    18     8     9    1
    19     9    10    2
    20     9    11    2
    21     9     1    1
    22     6     2   ar
    23    21    17   ar
@<TRIPOS>MOLECULE
*****
 21 23 0 0 0
SMALL
GASTEIGER

@<TRIPOS>ATOM
      1 C          63.6645   86.2751   14.0819 C.3     1  UNL1        0.2337
      2 N          63.4744   84.7886   14.1457 N.ar    1  UNL1       -0.2923
      3 C          63.7993   83.7799   15.2073 C.ar    1  UNL1        0.1796
      4 N          63.3782   82.4296   14.7080 N.ar    1  UNL1       -0.2226
      5 C          62.7931   82.6037   13.3379 C.ar    1  UNL1        0.1148
      6 C          62.8525   84.0617   12.9904 C.ar    1  UNL1        0.0770
      7 C          62.4207   84.8213   11.7711 C.3     1  UNL1        0.1410
      8 N          62.6108   86.3079   11.7073 N.3     1  UNL1       -0.1467
      9 S          63.2327   87.0347   12.8626 S.O2    1  UNL1        0.0628
     10 O          62.9873   88.1857   11.9324 O.2     1  UNL1       -0.1555
     11 O          63.7694   88.1614   13.6949 O.2     1  UNL1       -0.1555
     12 C          64.2864   87.0021   15.2372 C.3     1  UNL1        0.0490
     13 C          62.9172   86.2827   17.3246 C.3     1  UNL1        0.0001
     14 C          63.4545   87.3621   16.4323 C.3     1  UNL1        0.0037
     15 C          63.1598   88.8014   16.7350 C.3     1  UNL1        0.0001
     16 C          62.1790   87.0675   10.4880 C.3     1  UNL1        0.1286
     17 C          61.9240   86.3389    9.2018 C.ar    1  UNL1        0.0251
     18 C          62.9377   85.5680    8.4092 C.ar    1  UNL1        0.0041
     19 C          62.2507   85.0060    7.2000 C.ar    1  UNL1        0.0072
     20 C          60.8125   85.4295    7.2453 C.ar    1  UNL1        0.0352
     21 S          60.6105   86.2533    8.4825 S.2     1  UNL1       -0.0893
@<TRIPOS>BOND
     1    13    14    1
     2    14    15    1
     3    14    12    1
     4    12     1    1
     5     1     2    1
     6     2     3   ar
     7     3     4   ar
     8     4     5   ar
     9     5     6   ar
    10     6     7    1
    11     7     8    1
    12     8    16    1
    13    16    17    1
    14    17    18   ar
    15    18    19   ar
    16    19    20   ar
    17    20    21   ar
    18     8     9    1
    19     9    10    2
    20     9    11    2
    21     9     1    1
    22     6     2   ar
    23    21    17   ar
@<TRIPOS>MOLECULE
*****
 21 23 0 0 0
SMALL
GASTEIGER

@<TRIPOS>ATOM
      1 C          62.3833   88.6486   11.9111 C.3     1  UNL1        0.2337
      2 N          61.5304   88.2468   10.7445 N.ar    1  UNL1       -0.2923
      3 C          60.7227   89.0495    9.7681 C.ar    1  UNL1        0.1796
      4 N          60.0732   88.0961    8.8095 N.ar    1  UNL1       -0.2226
      5 C          60.4794   86.7041    9.1933 C.ar    1  UNL1        0.1148
      6 C          61.3800   86.7972   10.3892 C.ar    1  UNL1        0.0770
      7 C          62.0826   85.7494   11.2007 C.3     1  UNL1        0.1410
      8 N          62.9356   86.1512   12.3673 N.3     1  UNL1       -0.1467
      9 S          63.0859   87.6006   12.7225 S.O2    1  UNL1        0.0628
     10 O          63.9443   86.9816   13.7856 O.2     1  UNL1       -0.1555
     11 O          63.5344   88.8353   13.4470 O.2     1  UNL1       -0.1555
     12 C          62.5337   90.0981   12.2664 C.3     1  UNL1        0.0490
     13 C          64.6386   91.6141   12.1221 C.3     1  UNL1        0.0001
     14 C          63.4504   90.9752   11.4663 C.3     1  UNL1        0.0037
     15 C          63.1791   91.2135   10.0104 C.3     1  UNL1        0.0001
     16 C          63.6382   85.1033   13.1787 C.3     1  UNL1        0.1286
     17 C          63.0356   83.7372   13.3226 C.ar    1  UNL1        0.0251
     18 C          62.9849   82.6795   12.2601 C.ar    1  UNL1        0.0041
     19 C          62.2960   81.4775   12.8350 C.ar    1  UNL1        0.0072
     20 C          61.9208   81.7923   14.2528 C.ar    1  UNL1        0.0352
     21 S          62.3780   83.1888   14.5541 S.2     1  UNL1       -0.0893
@<TRIPOS>BOND
     1    13    14    1
     2    14    15    1
     3    14    12    1
     4    12     1    1
     5     1     2    1
     6     2     3   ar
     7     3     4   ar
     8     4     5   ar
     9     5     6   ar
    10     6     7    1
    11     7     8    1
    12     8    16    1
    13    16    17    1
    14    17    18   ar
    15    18    19   ar
    16    19    20   ar
    17    20    21   ar
    18     8     9    1
    19     9    10    2
    20     9    11    2
    21     9     1    1
    22     6     2   ar
    23    21    17   ar
@<TRIPOS>MOLECULE
*****
 21 23 0 0 0
SMALL
GASTEIGER

@<TRIPOS>ATOM
      1 C          62.7620   86.2304   11.8768 C.3     1  UNL1        0.2337
      2 N          63.4906   85.5726   13.0110 N.ar    1  UNL1       -0.2923
      3 C          63.7532   84.1315   13.3339 C.ar    1  UNL1        0.1796
      4 N          64.5418   84.0784   14.6087 N.ar    1  UNL1       -0.2226
      5 C          64.7667   85.4866   15.0737 C.ar    1  UNL1        0.1148
      6 C          64.1169   86.4101   14.0863 C.ar    1  UNL1        0.0770
      7 C          64.0147   87.9055   14.0274 C.3     1  UNL1        0.1410
      8 N          63.2861   88.5633   12.8932 N.3     1  UNL1       -0.1467
      9 S          62.6598   87.7258   11.8179 S.O2    1  UNL1        0.0628
     10 O          62.2961   89.0955   11.3262 O.2     1  UNL1       -0.1555
     11 O          61.9071   87.3639   10.5719 O.2     1  UNL1       -0.1555
     12 C          62.1356   85.3929   10.8015 C.3     1  UNL1        0.0490
     13 C          63.0347   85.3606    8.3642 C.3     1  UNL1        0.0001
     14 C          62.9939   84.7683    9.7418 C.3     1  UNL1        0.0037
     15 C          63.8115   83.5514   10.0595 C.3     1  UNL1        0.0001
     16 C          63.1839   90.0587   12.8343 C.3     1  UNL1        0.1286
     17 C          64.3558   90.9066   13.2312 C.ar    1  UNL1        0.0251
     18 C          65.0915   90.8385   14.5367 C.ar    1  UNL1        0.0041
     19 C          66.1882   91.8614   14.5047 C.ar    1  UNL1        0.0072
     20 C          66.1303   92.5616   13.1794 C.ar    1  UNL1        0.0352
     21 S          64.9979   91.9716   12.3924 S.2     1  UNL1       -0.0893
@<TRIPOS>BOND
     1    13    14    1
     2    14    15    1
     3    14    12    1
     4    12     1    1
     5     1     2    1
     6     2     3   ar
     7     3     4   ar
     8     4     5   ar
     9     5     6   ar
    10     6     7    1
    11     7     8    1
    12     8    16    1
    13    16    17    1
    14    17    18   ar
    15    18    19   ar
    16    19    20   ar
    17    20    21   ar
    18     8     9    1
    19     9    10    2
    20     9    11    2
    21     9     1    1
    22     6     2   ar
    23    21    17   ar
@<TRIPOS>MOLECULE
*****
 21 23 0 0 0
SMALL
GASTEIGER

@<TRIPOS>ATOM
      1 C          63.1021   88.9269   12.0176 C.3     1  UNL1        0.2337
      2 N          63.4385   87.7448   12.8775 N.ar    1  UNL1       -0.2923
      3 C          63.1697   86.2779   12.7169 C.ar    1  UNL1        0.1796
      4 N          63.7475   85.5680   13.9053 N.ar    1  UNL1       -0.2226
      5 C          64.3733   86.5962   14.8003 C.ar    1  UNL1        0.1148
      6 C          64.1824   87.9416   14.1652 C.ar    1  UNL1        0.0770
      7 C          64.5897   89.3204   14.5929 C.3     1  UNL1        0.1410
      8 N          64.2533   90.5024   13.7330 N.3     1  UNL1       -0.1467
      9 S          63.5095   90.3057   12.4454 S.O2    1  UNL1        0.0628
     10 O          63.6789   91.7960   12.4232 O.2     1  UNL1       -0.1555
     11 O          62.8244   90.6266   11.1500 O.2     1  UNL1       -0.1555
     12 C          62.3582   88.7303   10.7299 C.3     1  UNL1        0.0490
     13 C          59.8762   88.5940   11.4853 C.3     1  UNL1        0.0001
     14 C          61.0369   88.0203   10.7279 C.3     1  UNL1        0.0037
     15 C          60.8763   86.7367    9.9686 C.3     1  UNL1        0.0001
     16 C          64.6607   91.8813   14.1608 C.3     1  UNL1        0.1286
     17 C          66.0489   92.1282   14.6723 C.ar    1  UNL1        0.0251
     18 C          66.4151   92.5277   16.0711 C.ar    1  UNL1        0.0041
     19 C          67.9073   92.6654   16.1382 C.ar    1  UNL1        0.0072
     20 C          68.4633   92.3510   14.7810 C.ar    1  UNL1        0.0352
     21 S          67.3148   92.0190   13.8751 S.2     1  UNL1       -0.0893
@<TRIPOS>BOND
     1    13    14    1
     2    14    15    1
     3    14    12    1
     4    12     1    1
     5     1     2    1
     6     2     3   ar
     7     3     4   ar
     8     4     5   ar
     9     5     6   ar
    10     6     7    1
    11     7     8    1
    12     8    16    1
    13    16    17    1
    14    17    18   ar
    15    18    19   ar
    16    19    20   ar
    17    20    21   ar
    18     8     9    1
    19     9    10    2
    20     9    11    2
    21     9     1    1
    22     6     2   ar
    23    21    17   ar
@<TRIPOS>MOLECULE
*****
 21 23 0 0 0
SMALL
GASTEIGER

@<TRIPOS>ATOM
      1 C          61.7786   87.1180   10.9222 C.3     1  UNL1        0.2337
      2 N          62.4803   86.1277   11.8036 N.ar    1  UNL1       -0.2923
      3 C          62.4842   84.6279   11.8234 C.ar    1  UNL1        0.1796
      4 N          63.3802   84.1814   12.9405 N.ar    1  UNL1       -0.2226
      5 C          63.9301   85.4053   13.6111 C.ar    1  UNL1        0.1148
      6 C          63.3739   86.6082   12.9084 C.ar    1  UNL1        0.0770
      7 C          63.5657   88.0790   13.1319 C.3     1  UNL1        0.1410
      8 N          62.8639   89.0693   12.2505 N.3     1  UNL1       -0.1467
      9 S          61.9704   88.5888   11.1458 S.O2    1  UNL1        0.0628
     10 O          61.8356   90.0717   10.9635 O.2     1  UNL1       -0.1555
     11 O          61.0300   88.6233    9.9776 O.2     1  UNL1       -0.1555
     12 C          60.8849   86.6375    9.8174 C.3     1  UNL1        0.0490
     13 C          62.9525   85.7332    8.5301 C.3     1  UNL1        0.0001
     14 C          61.4790   86.0068    8.5930 C.3     1  UNL1        0.0037
     15 C          60.5996   85.6496    7.4314 C.3     1  UNL1        0.0001
     16 C          63.0558   90.5402   12.4740 C.3     1  UNL1        0.1286
     17 C          64.3368   91.0478   13.0666 C.ar    1  UNL1        0.0251
     18 C          64.9417   90.6087   14.3672 C.ar    1  UNL1        0.0041
     19 C          66.2166   91.3732   14.5670 C.ar    1  UNL1        0.0072
     20 C          66.3998   92.2849   13.3900 C.ar    1  UNL1        0.0352
     21 S          65.2380   92.0838   12.4627 S.2     1  UNL1       -0.0893
@<TRIPOS>BOND
     1    13    14    1
     2    14    15    1
     3    14    12    1
     4    12     1    1
     5     1     2    1
     6     2     3   ar
     7     3     4   ar
     8     4     5   ar
     9     5     6   ar
    10     6     7    1
    11     7     8    1
    12     8    16    1
    13    16    17    1
    14    17    18   ar
    15    18    19   ar
    16    19    20   ar
    17    20    21   ar
    18     8     9    1
    19     9    10    2
    20     9    11    2
    21     9     1    1
    22     6     2   ar
    23    21    17   ar
@<TRIPOS>MOLECULE
*****
 21 23 0 0 0
SMALL
GASTEIGER

@<TRIPOS>ATOM
      1 C          62.7162   87.9758   11.7324 C.3     1  UNL1        0.2337
      2 N          61.9372   87.5268   10.5318 N.ar    1  UNL1       -0.2923
      3 C          61.3311   88.2844    9.3878 C.ar    1  UNL1        0.1796
      4 N          60.6659   87.2952    8.4774 N.ar    1  UNL1       -0.2226
      5 C          60.8608   85.9262    9.0587 C.ar    1  UNL1        0.1148
      6 C          61.6466   86.0694   10.3284 C.ar    1  UNL1        0.0770
      7 C          62.1349   85.0609   11.3256 C.3     1  UNL1        0.1410
      8 N          62.9139   85.5099   12.5263 N.3     1  UNL1       -0.1467
      9 S          63.2046   86.9672   12.7297 S.O2    1  UNL1        0.0628
     10 O          63.8748   86.3960   13.9441 O.2     1  UNL1       -0.1555
     11 O          63.7280   88.2264   13.3548 O.2     1  UNL1       -0.1555
     12 C          63.0069   89.4333   11.9359 C.3     1  UNL1        0.0490
     13 C          63.0022   91.2816   10.1102 C.3     1  UNL1        0.0001
     14 C          62.2703   90.4642   11.1330 C.3     1  UNL1        0.0037
     15 C          60.8020   90.6777   11.3530 C.3     1  UNL1        0.0001
     16 C          63.4023   84.5013   13.5235 C.3     1  UNL1        0.1286
     17 C          62.9964   83.0630   13.3957 C.ar    1  UNL1        0.0251
     18 C          63.4182   82.1212   12.3070 C.ar    1  UNL1        0.0041
     19 C          62.7799   80.7900   12.5725 C.ar    1  UNL1        0.0072
     20 C          61.9635   80.9091   13.8253 C.ar    1  UNL1        0.0352
     21 S          62.0973   82.3139   14.3340 S.2     1  UNL1       -0.0893
@<TRIPOS>BOND
     1    13    14    1
     2    14    15    1
     3    14    12    1
     4    12     1    1
     5     1     2    1
     6     2     3   ar
     7     3     4   ar
     8     4     5   ar
     9     5     6   ar
    10     6     7    1
    11     7     8    1
    12     8    16    1
    13    16    17    1
    14    17    18   ar
    15    18    19   ar
    16    19    20   ar
    17    20    21   ar
    18     8     9    1
    19     9    10    2
    20     9    11    2
    21     9     1    1
    22     6     2   ar
    23    21    17   ar
