@<TRIPOS>MOLECULE
*****
 52 58 0 0 0
SMALL
GASTEIGER

@<TRIPOS>ATOM
      1 C          60.8189   88.8869    9.6089 C.2     1  UNL1        0.1699
      2 N          60.0851   89.8502    8.7237 N.2     1  UNL1       -0.0640
      3 C          59.5533   89.3943    7.3974 C.cat   1  UNL1        0.4643
      4 N          59.7552   87.9749    6.9561 N.2     1  UNL1        0.0296
      5 C          60.4890   87.0116    7.8413 C.2     1  UNL1        0.3686
      6 N          60.8384   85.5623    7.6751 N.2     1  UNL1       -0.0340
      7 C          61.5861   85.1226    8.8989 C.2     1  UNL1        0.2321
      8 C          61.6989   86.3001    9.8213 C.2     1  UNL1        0.0440
      9 C          61.0208   87.4675    9.1677 C.3     1  UNL1        0.1961
     10 C          62.8694   89.9935   12.7131 C.ar    1  UNL1        0.1559
     11 C          62.7965   89.5284   11.2889 C.ar    1  UNL1        0.0469
     12 C          61.3507   89.3428   10.9353 C.ar    1  UNL1        0.1105
     13 N          60.5299   89.6933   12.1409 N.ar    1  UNL1       -0.2461
     14 C          59.0334   89.6494   12.2318 C.3     1  UNL1        0.1538
     15 N          61.4686   90.0955   13.2397 N.ar    1  UNL1       -0.1645
     16 N          64.6470   91.7072   13.5213 N.am    1  UNL1       -0.2796
     17 C          64.1230   90.3025   13.4766 C.2     1  UNL1        0.2690
     18 O          64.8526   89.2066   14.1956 O.2     1  UNL1       -0.2681
     19 H          64.1682   92.4265   13.0494 H       1  UNL1        0.1552
     20 C          65.8337   92.2859   15.7589 C.ar    1  UNL1       -0.0090
     21 C          67.0874   92.5949   16.5224 C.ar    1  UNL1       -0.0031
     22 C          68.4078   92.6341   15.8119 C.ar    1  UNL1       -0.0006
     23 C          68.4747   92.3643   14.3378 C.ar    1  UNL1       -0.0031
     24 C          67.2211   92.0554   13.5743 C.ar    1  UNL1       -0.0090
     25 C          65.9006   92.0162   14.2848 C.ar    1  UNL1        0.0425
     26 C          63.8390   90.9318   16.7269 C.3     1  UNL1        0.0051
     27 C          64.5133   92.2467   16.4693 C.3     1  UNL1        0.0276
     28 C          67.2880   91.7856   12.1002 C.3     1  UNL1        0.0276
     29 C          66.6419   92.7339   11.1342 C.3     1  UNL1        0.0051
     30 N          58.8196   90.3578    6.5122 N.pl3   1  UNL1       -0.1896
     31 H          57.8730   90.5642    6.6874 H       1  UNL1        0.2524
     32 C          59.5280   91.0067    5.3603 C.ar    1  UNL1        0.1435
     33 C          60.9558   90.6553    5.0638 C.ar    1  UNL1        0.0356
     34 C          61.6643   91.3042    3.9119 C.ar    1  UNL1        0.0174
     35 C          60.9449   92.3044    3.0563 C.ar    1  UNL1        0.0511
     36 C          59.5171   92.6558    3.3527 C.ar    1  UNL1        0.0541
     37 C          58.8087   92.0069    4.5047 C.ar    1  UNL1        0.1684
     38 N          61.6533   92.9533    1.9042 N.pl3   1  UNL1       -0.3073
     39 C          63.1052   92.6669    1.6592 C.3     1  UNL1        0.0922
     40 C          63.8136   93.3157    0.5072 C.3     1  UNL1        0.0374
     41 C          63.0702   94.2511   -0.3997 C.3     1  UNL1        0.0610
     42 C          61.6183   94.5376   -0.1546 C.3     1  UNL1        0.0374
     43 C          60.9099   93.8887    0.9974 C.3     1  UNL1        0.0922
     44 N          63.7786   94.9000   -1.5516 N.3     1  UNL1       -0.2715
     45 C          64.5995   96.1352   -1.3276 C.3     1  UNL1        0.0896
     46 C          65.3080   96.7840   -2.4796 C.3     1  UNL1        0.0897
     47 N          65.1955   96.1977   -3.8557 N.3     1  UNL1       -0.2691
     48 C          65.9040   96.8465   -5.0077 C.3     1  UNL1        0.0897
     49 C          64.3746   94.9624   -4.0797 C.3     1  UNL1        0.0897
     50 C          63.6661   94.3135   -2.9278 C.3     1  UNL1        0.0896
     51 O          57.3808   92.3582    4.8011 O.3     1  UNL1       -0.4687
     52 C          56.3384   91.2809    4.8522 C.3     1  UNL1        0.2526
@<TRIPOS>BOND
     1    26    27    1
     2    27    20    1
     3    20    21   ar
     4    21    22   ar
     5    22    23   ar
     6    23    24   ar
     7    24    28    1
     8    28    29    1
     9    24    25   ar
    10    25    16    1
    11    16    17   am
    12    17    18    2
    13    17    10    1
    14    10    11   ar
    15    11    12   ar
    16    12     1    1
    17     1     2    2
    18     2     3    1
    19     3    30    1
    20    30    32    1
    21    32    33   ar
    22    33    34   ar
    23    34    35   ar
    24    35    38    1
    25    38    39    1
    26    39    40    1
    27    40    41    1
    28    41    44    1
    29    44    45    1
    30    45    46    1
    31    46    47    1
    32    47    48    1
    33    47    49    1
    34    49    50    1
    35    41    42    1
    36    42    43    1
    37    35    36   ar
    38    36    37   ar
    39    37    51    1
    40    51    52    1
    41     3     4    2
    42     4     5    1
    43     5     6    2
    44     6     7    1
    45     7     8    2
    46     8     9    1
    47    12    13   ar
    48    13    14    1
    49    13    15   ar
    50    25    20   ar
    51    15    10   ar
    52     9     1    1
    53    37    32   ar
    54     9     5    1
    55    43    38    1
    56    50    44    1
    57    16    19    1
    58    30    31    1
@<TRIPOS>MOLECULE
*****
 52 58 0 0 0
SMALL
GASTEIGER

@<TRIPOS>ATOM
      1 C          61.1454   89.1226    9.6159 C.2     1  UNL1        0.1699
      2 N          60.3889   90.0004    8.6634 N.2     1  UNL1       -0.0640
      3 C          59.7636   89.4098    7.4346 C.cat   1  UNL1        0.4643
      4 N          59.8947   87.9413    7.1582 N.2     1  UNL1        0.0296
      5 C          60.6511   87.0635    8.1107 C.2     1  UNL1        0.3686
      6 N          60.9452   85.5926    8.1021 N.2     1  UNL1       -0.0340
      7 C          61.7523   85.2742    9.3257 C.2     1  UNL1        0.2321
      8 C          61.9570   86.5483   10.0905 C.2     1  UNL1        0.0440
      9 C          61.2765   87.6541    9.3395 C.3     1  UNL1        0.1961
     10 C          63.3171   90.8545   12.3268 C.ar    1  UNL1        0.1559
     11 C          63.0835   90.4363   10.9055 C.ar    1  UNL1        0.0469
     12 C          61.7707   89.7133   10.8448 C.ar    1  UNL1        0.1105
     13 N          61.1929   89.6846   12.2287 N.ar    1  UNL1       -0.2461
     14 C          59.8885   89.0602   12.6268 C.3     1  UNL1        0.1538
     15 N          62.1487   90.3899   13.1447 N.ar    1  UNL1       -0.1645
     16 N          65.3580   91.0136   13.9267 N.am    1  UNL1       -0.2796
     17 C          64.5098   91.6054   12.8403 C.2     1  UNL1        0.2690
     18 O          64.8543   92.9482   12.2674 O.2     1  UNL1       -0.2681
     19 H          65.1319   90.1322   14.3027 H       1  UNL1        0.1552
     20 C          67.7877   91.8732   13.5988 C.ar    1  UNL1       -0.0090
     21 C          68.9804   92.6242   14.1124 C.ar    1  UNL1       -0.0031
     22 C          68.9359   93.2664   15.4672 C.ar    1  UNL1       -0.0006
     23 C          67.6989   93.1576   16.3086 C.ar    1  UNL1       -0.0031
     24 C          66.5062   92.4067   15.7951 C.ar    1  UNL1       -0.0090
     25 C          66.5507   91.7645   14.4402 C.ar    1  UNL1        0.0425
     26 C          67.9425   92.0822   11.0138 C.3     1  UNL1        0.0051
     27 C          67.8321   91.2310   12.2440 C.3     1  UNL1        0.0276
     28 C          65.2691   92.2980   16.6364 C.3     1  UNL1        0.0276
     29 C          64.1506   91.3931   16.2120 C.3     1  UNL1        0.0051
     30 N          59.0072   90.2877    6.4821 N.pl3   1  UNL1       -0.1896
     31 H          58.0416   90.4332    6.6078 H       1  UNL1        0.2524
     32 C          59.7218   90.9438    5.3381 C.ar    1  UNL1        0.1435
     33 C          61.1401   90.5685    5.0255 C.ar    1  UNL1        0.0356
     34 C          61.8548   91.2247    3.8815 C.ar    1  UNL1        0.0174
     35 C          61.1512   92.2560    3.0501 C.ar    1  UNL1        0.0511
     36 C          59.7330   92.6313    3.3627 C.ar    1  UNL1        0.0541
     37 C          59.0183   91.9752    4.5067 C.ar    1  UNL1        0.1684
     38 N          61.8659   92.9122    1.9060 N.pl3   1  UNL1       -0.3073
     39 C          63.2386   93.4823    2.1072 C.3     1  UNL1        0.0922
     40 C          63.9533   94.1385    0.9633 C.3     1  UNL1        0.0374
     41 C          63.2952   94.2245   -0.3819 C.3     1  UNL1        0.0610
     42 C          61.9224   93.6545   -0.5830 C.3     1  UNL1        0.0374
     43 C          61.2077   92.9983    0.5609 C.3     1  UNL1        0.0922
     44 N          64.0099   94.8807   -1.5258 N.3     1  UNL1       -0.2715
     45 C          63.8287   94.3603   -2.9209 C.3     1  UNL1        0.0896
     46 C          64.5435   95.0166   -4.0649 C.3     1  UNL1        0.0897
     47 N          65.4393   96.1932   -3.8137 N.3     1  UNL1       -0.2691
     48 C          66.1540   96.8493   -4.9577 C.3     1  UNL1        0.0897
     49 C          65.6204   96.7136   -2.4186 C.3     1  UNL1        0.0897
     50 C          64.9058   96.0574   -1.2746 C.3     1  UNL1        0.0896
     51 O          57.6001   92.3505    4.8193 O.3     1  UNL1       -0.4687
     52 C          56.5422   91.2896    4.8927 C.3     1  UNL1        0.2526
@<TRIPOS>BOND
     1    26    27    1
     2    27    20    1
     3    20    21   ar
     4    21    22   ar
     5    22    23   ar
     6    23    24   ar
     7    24    28    1
     8    28    29    1
     9    24    25   ar
    10    25    16    1
    11    16    17   am
    12    17    18    2
    13    17    10    1
    14    10    11   ar
    15    11    12   ar
    16    12     1    1
    17     1     2    2
    18     2     3    1
    19     3    30    1
    20    30    32    1
    21    32    33   ar
    22    33    34   ar
    23    34    35   ar
    24    35    38    1
    25    38    39    1
    26    39    40    1
    27    40    41    1
    28    41    44    1
    29    44    45    1
    30    45    46    1
    31    46    47    1
    32    47    48    1
    33    47    49    1
    34    49    50    1
    35    41    42    1
    36    42    43    1
    37    35    36   ar
    38    36    37   ar
    39    37    51    1
    40    51    52    1
    41     3     4    2
    42     4     5    1
    43     5     6    2
    44     6     7    1
    45     7     8    2
    46     8     9    1
    47    12    13   ar
    48    13    14    1
    49    13    15   ar
    50    25    20   ar
    51    15    10   ar
    52     9     1    1
    53    37    32   ar
    54     9     5    1
    55    43    38    1
    56    50    44    1
    57    16    19    1
    58    30    31    1
