@<TRIPOS>MOLECULE
*****
 37 40 0 0 0
SMALL
GASTEIGER

@<TRIPOS>ATOM
      1 N          58.6083   92.5164    3.1559 N.am    1  UNL1       -0.2766
      2 C          59.6176   92.9878    2.1513 C.2     1  UNL1        0.2859
      3 O          61.0549   92.5798    2.2840 O.2     1  UNL1       -0.2664
      4 H          57.6650   92.7842    3.0688 H       1  UNL1        0.1553
      5 C          59.8925   89.8782    6.5677 C.ar    1  UNL1        0.1319
      6 C          58.4338   90.1127    6.3089 C.ar    1  UNL1        0.0356
      7 C          58.0057   90.9921    5.1716 C.ar    1  UNL1        0.0191
      8 C          59.0364   91.6370    4.2932 C.ar    1  UNL1        0.0702
      9 C          60.4951   91.4025    4.5520 C.ar    1  UNL1        0.1149
     10 N          60.9232   90.5231    5.6893 N.ar    1  UNL1       -0.2279
     11 C          61.6048   86.3605   11.1168 C.2     1  UNL1        0.4049
     12 O          62.1130   86.9729   12.3883 O.2     1  UNL1       -0.2262
     13 N          61.1767   87.2399    9.9795 N.am    1  UNL1       -0.2425
     14 C          60.6685   86.6276    8.7081 C.3     1  UNL1        0.1182
     15 C          60.2404   87.5070    7.5708 C.3     1  UNL1        0.1138
     16 N          60.3206   88.9988    7.7050 N.pl3   1  UNL1       -0.2897
     17 C          60.8288   89.6112    8.9765 C.3     1  UNL1        0.1138
     18 C          61.2568   88.7318   10.1137 C.3     1  UNL1        0.1182
     19 O          61.5246   84.8687   10.9826 O.3     1  UNL1       -0.4383
     20 C          62.8939   83.5173   12.7288 C.3     1  UNL1        0.0474
     21 C          62.7123   84.0198   11.3271 C.3     1  UNL1        0.1707
     22 C          63.7185   83.6734   10.2699 C.3     1  UNL1        0.0474
     23 C          59.1895   93.8672    1.0140 C.ar    1  UNL1        0.2233
     24 O          58.1815   93.5171   -0.0402 O.2     1  UNL1       -0.4191
     25 C          58.0633   94.6847   -0.9745 C.ar    1  UNL1        0.2925
     26 N          58.9983   95.7564   -0.4977 N.ar    1  UNL1       -0.1904
     27 C          59.6943   95.2512    0.7313 C.ar    1  UNL1        0.1959
     28 N          57.1675   94.7662   -2.1747 N.pl3   1  UNL1       -0.2636
     29 C          57.6053   94.1694   -3.4794 C.3     1  UNL1        0.0951
     30 C          56.7094   94.2510   -4.6796 C.3     1  UNL1        0.0216
     31 C          55.3756   94.9295   -4.5753 C.3     1  UNL1        0.0035
     32 C          54.9378   95.5264   -3.2707 C.3     1  UNL1        0.0216
     33 C          55.8337   95.4447   -2.0704 C.3     1  UNL1        0.0951
     34 C          60.7158   95.9986    1.5361 C.3     1  UNL1        0.4381
     35 F          61.7372   96.7462    2.3411 F       1  UNL1       -0.1643
     36 F          61.8129   95.3575    0.7393 F       1  UNL1       -0.1643
     37 F          59.6186   96.6399    2.3330 F       1  UNL1       -0.1643
@<TRIPOS>BOND
     1    20    21    1
     2    21    22    1
     3    21    19    1
     4    19    11    1
     5    11    12    2
     6    11    13   am
     7    13    14    1
     8    14    15    1
     9    15    16    1
    10    16     5    1
    11     5     6   ar
    12     6     7   ar
    13     7     8   ar
    14     8     1    1
    15     1     2   am
    16     2     3    2
    17     2    23    1
    18    23    24   ar
    19    24    25   ar
    20    25    28    1
    21    28    29    1
    22    29    30    1
    23    30    31    1
    24    31    32    1
    25    32    33    1
    26    25    26   ar
    27    26    27   ar
    28    27    34    1
    29    34    35    1
    30    34    36    1
    31    34    37    1
    32     8     9   ar
    33     9    10   ar
    34    16    17    1
    35    17    18    1
    36    18    13    1
    37    10     5   ar
    38    27    23   ar
    39    33    28    1
    40     1     4    1
@<TRIPOS>MOLECULE
*****
 37 40 0 0 0
SMALL
GASTEIGER

@<TRIPOS>ATOM
      1 N          61.1056   90.6548    6.2124 N.am    1  UNL1       -0.2766
      2 C          60.1501   89.8197    7.0121 C.2     1  UNL1        0.2859
      3 O          58.7261   89.6727    6.5640 O.2     1  UNL1       -0.2664
      4 H          62.0402   90.7512    6.5066 H       1  UNL1        0.1553
      5 C          59.7006   92.7191    2.4689 C.ar    1  UNL1        0.1319
      6 C          61.1436   92.3380    2.6186 C.ar    1  UNL1        0.0356
      7 C          61.6119   91.6498    3.8665 C.ar    1  UNL1        0.0191
      8 C          60.6373   91.3429    4.9646 C.ar    1  UNL1        0.0702
      9 C          59.1943   91.7241    4.8148 C.ar    1  UNL1        0.1149
     10 N          58.7260   92.4122    3.5669 N.ar    1  UNL1       -0.2279
     11 C          57.8272   95.4716   -2.5226 C.2     1  UNL1        0.4049
     12 O          58.3087   96.8559   -2.8414 O.2     1  UNL1       -0.2262
     13 N          58.2956   94.7835   -1.2747 N.am    1  UNL1       -0.2425
     14 C          57.8140   93.3992   -0.9558 C.3     1  UNL1        0.1182
     15 C          58.2824   92.7111    0.2920 C.3     1  UNL1        0.1138
     16 N          59.2323   93.4073    1.2210 N.pl3   1  UNL1       -0.2897
     17 C          59.7138   94.7916    0.9021 C.3     1  UNL1        0.1138
     18 C          59.2454   95.4797   -0.3457 C.3     1  UNL1        0.1182
     19 O          56.8774   94.7754   -3.4515 O.3     1  UNL1       -0.4383
     20 C          54.6431   94.9230   -2.1338 C.3     1  UNL1        0.0474
     21 C          55.4135   95.0997   -3.4087 C.3     1  UNL1        0.1707
     22 C          54.7199   95.6006   -4.6408 C.3     1  UNL1        0.0474
     23 C          60.6184   89.1316    8.2600 C.ar    1  UNL1        0.2233
     24 O          61.4643   89.7410    9.3384 O.2     1  UNL1       -0.4191
     25 C          61.6918   88.6993   10.3935 C.ar    1  UNL1        0.2925
     26 N          60.9865   87.4460    9.9670 N.ar    1  UNL1       -0.1904
     27 C          60.3231   87.7131    8.6484 C.ar    1  UNL1        0.1959
     28 N          62.4852   88.8792   11.6536 N.pl3   1  UNL1       -0.2636
     29 C          62.6718   90.2501   12.2331 C.3     1  UNL1        0.0951
     30 C          63.4652   90.4299   13.4933 C.3     1  UNL1        0.0216
     31 C          64.0720   89.2389   14.1740 C.3     1  UNL1        0.0035
     32 C          63.8854   87.8681   13.5945 C.3     1  UNL1        0.0216
     33 C          63.0919   87.6882   12.3343 C.3     1  UNL1        0.0951
     34 C          59.5077   86.7338    7.8573 C.3     1  UNL1        0.4381
     35 F          58.6922   85.7545    7.0661 F       1  UNL1       -0.1643
     36 F          60.7653   86.1432    7.2920 F       1  UNL1       -0.1643
     37 F          58.2500   87.3244    8.4225 F       1  UNL1       -0.1643
@<TRIPOS>BOND
     1    20    21    1
     2    21    22    1
     3    21    19    1
     4    19    11    1
     5    11    12    2
     6    11    13   am
     7    13    14    1
     8    14    15    1
     9    15    16    1
    10    16     5    1
    11     5     6   ar
    12     6     7   ar
    13     7     8   ar
    14     8     1    1
    15     1     2   am
    16     2     3    2
    17     2    23    1
    18    23    24   ar
    19    24    25   ar
    20    25    28    1
    21    28    29    1
    22    29    30    1
    23    30    31    1
    24    31    32    1
    25    32    33    1
    26    25    26   ar
    27    26    27   ar
    28    27    34    1
    29    34    35    1
    30    34    36    1
    31    34    37    1
    32     8     9   ar
    33     9    10   ar
    34    16    17    1
    35    17    18    1
    36    18    13    1
    37    10     5   ar
    38    27    23   ar
    39    33    28    1
    40     1     4    1
@<TRIPOS>MOLECULE
*****
 37 40 0 0 0
SMALL
GASTEIGER

@<TRIPOS>ATOM
      1 N          61.1016   90.7321    6.1583 N.am    1  UNL1       -0.2766
      2 C          60.1663   89.8469    6.9273 C.2     1  UNL1        0.2859
      3 O          58.7724   89.6123    6.4249 O.2     1  UNL1       -0.2664
      4 H          62.0164   90.8861    6.4881 H       1  UNL1        0.1553
      5 C          59.7264   92.6846    2.3443 C.ar    1  UNL1        0.1319
      6 C          61.1558   92.2552    2.4940 C.ar    1  UNL1        0.0356
      7 C          61.6142   91.6044    3.7654 C.ar    1  UNL1        0.0191
      8 C          60.6432   91.3830    4.8870 C.ar    1  UNL1        0.0702
      9 C          59.2138   91.8123    4.7373 C.ar    1  UNL1        0.1149
     10 N          58.7554   92.4631    3.4659 N.ar    1  UNL1       -0.2279
     11 C          57.8928   95.2878   -2.7411 C.2     1  UNL1        0.4049
     12 O          56.8513   94.6225   -3.5910 O.2     1  UNL1       -0.2262
     13 N          58.3512   94.6370   -1.4697 N.am    1  UNL1       -0.2425
     14 C          59.3928   95.3024   -0.6198 C.3     1  UNL1        0.1182
     15 C          59.8512   94.6515    0.6516 C.3     1  UNL1        0.1138
     16 N          59.2680   93.3354    1.0730 N.pl3   1  UNL1       -0.2897
     17 C          58.2265   92.6701    0.2230 C.3     1  UNL1        0.1138
     18 C          57.7681   93.3209   -1.0483 C.3     1  UNL1        0.1182
     19 O          58.4760   96.6040   -3.1625 O.3     1  UNL1       -0.4383
     20 C          60.9642   96.8559   -3.8663 C.3     1  UNL1        0.0474
     21 C          59.5245   96.6511   -4.2341 C.3     1  UNL1        0.1707
     22 C          59.1333   96.4933   -5.6736 C.3     1  UNL1        0.0474
     23 C          60.6246   89.1960    8.1986 C.ar    1  UNL1        0.2233
     24 O          61.4950   89.8240    9.2466 O.2     1  UNL1       -0.4191
     25 C          61.7014   88.8191   10.3409 C.ar    1  UNL1        0.2925
     26 N          60.9587   87.5700    9.9693 N.ar    1  UNL1       -0.1904
     27 C          60.2931   87.8029    8.6453 C.ar    1  UNL1        0.1959
     28 N          62.5088   89.0267   11.5878 N.pl3   1  UNL1       -0.2636
     29 C          62.7481   90.4146   12.1040 C.3     1  UNL1        0.0951
     30 C          63.5555   90.6221   13.3510 C.3     1  UNL1        0.0216
     31 C          64.1237   89.4418   14.0818 C.3     1  UNL1        0.0035
     32 C          63.8845   88.0539   13.5655 C.3     1  UNL1        0.0216
     33 C          63.0770   87.8464   12.3186 C.3     1  UNL1        0.0951
     34 C          59.4451   86.8161    7.8990 C.3     1  UNL1        0.4381
     35 F          58.5971   85.8292    7.1527 F       1  UNL1       -0.1643
     36 F          58.2306   87.3073    8.6295 F       1  UNL1       -0.1643
     37 F          60.6596   86.3249    7.1685 F       1  UNL1       -0.1643
@<TRIPOS>BOND
     1    20    21    1
     2    21    22    1
     3    21    19    1
     4    19    11    1
     5    11    12    2
     6    11    13   am
     7    13    14    1
     8    14    15    1
     9    15    16    1
    10    16     5    1
    11     5     6   ar
    12     6     7   ar
    13     7     8   ar
    14     8     1    1
    15     1     2   am
    16     2     3    2
    17     2    23    1
    18    23    24   ar
    19    24    25   ar
    20    25    28    1
    21    28    29    1
    22    29    30    1
    23    30    31    1
    24    31    32    1
    25    32    33    1
    26    25    26   ar
    27    26    27   ar
    28    27    34    1
    29    34    35    1
    30    34    36    1
    31    34    37    1
    32     8     9   ar
    33     9    10   ar
    34    16    17    1
    35    17    18    1
    36    18    13    1
    37    10     5   ar
    38    27    23   ar
    39    33    28    1
    40     1     4    1
@<TRIPOS>MOLECULE
*****
 37 40 0 0 0
SMALL
GASTEIGER

@<TRIPOS>ATOM
      1 N          59.8625   89.2317    7.4566 N.am    1  UNL1       -0.2766
      2 C          60.8772   89.4871    8.5313 C.2     1  UNL1        0.2859
      3 O          61.8235   90.6446    8.4096 O.2     1  UNL1       -0.2664
      4 H          59.2414   88.4720    7.5365 H       1  UNL1        0.1553
      5 C          59.6574   91.9376    3.8669 C.ar    1  UNL1        0.1319
      6 C          60.9782   91.3869    4.3165 C.ar    1  UNL1        0.0356
      7 C          61.0466   90.4849    5.5131 C.ar    1  UNL1        0.0191
      8 C          59.7942   90.1336    6.2600 C.ar    1  UNL1        0.0702
      9 C          58.4734   90.6843    5.8104 C.ar    1  UNL1        0.1149
     10 N          58.4050   91.5863    4.6138 N.ar    1  UNL1       -0.2279
     11 C          59.3840   95.5455   -0.9194 C.2     1  UNL1        0.4049
     12 O          60.1138   96.8559   -0.9135 O.2     1  UNL1       -0.2262
     13 N          59.4524   94.6435    0.2772 N.am    1  UNL1       -0.2425
     14 C          58.7225   93.3331    0.2712 C.3     1  UNL1        0.1182
     15 C          58.7909   92.4311    1.4678 C.3     1  UNL1        0.1138
     16 N          59.5891   92.8396    2.6703 N.pl3   1  UNL1       -0.2897
     17 C          60.3189   94.1500    2.6762 C.3     1  UNL1        0.1138
     18 C          60.2505   95.0520    1.4796 C.3     1  UNL1        0.1182
     19 O          58.5858   95.1370   -2.1219 O.3     1  UNL1       -0.4383
     20 C          60.6993   94.0300   -3.1503 C.3     1  UNL1        0.0474
     21 C          59.2363   94.3531   -3.2229 C.3     1  UNL1        0.1707
     22 C          58.4238   93.8923   -4.3966 C.3     1  UNL1        0.0474
     23 C          60.9455   88.5851    9.7279 C.ar    1  UNL1        0.2233
     24 O          61.7151   87.3010    9.8212 O.2     1  UNL1       -0.4191
     25 C          61.5015   86.7311   11.1923 C.ar    1  UNL1        0.2925
     26 N          60.5999   87.6631   11.9463 N.ar    1  UNL1       -0.1904
     27 C          60.2562   88.8090   11.0413 C.ar    1  UNL1        0.1959
     28 N          62.0867   85.4537   11.7171 N.pl3   1  UNL1       -0.2636
     29 C          62.4189   84.3370   10.7723 C.3     1  UNL1        0.0951
     30 C          63.0041   83.0596   11.2973 C.3     1  UNL1        0.0216
     31 C          63.2572   82.8988   12.7670 C.3     1  UNL1        0.0035
     32 C          62.9250   84.0154   13.7118 C.3     1  UNL1        0.0216
     33 C          62.3397   85.2929   13.1869 C.3     1  UNL1        0.0951
     34 C          59.3777   89.9740   11.3886 C.3     1  UNL1        0.4381
     35 F          58.4990   91.1391   11.7360 F       1  UNL1       -0.1643
     36 F          60.3464   90.9039   10.7203 F       1  UNL1       -0.1643
     37 F          58.4089   89.0441   12.0571 F       1  UNL1       -0.1643
@<TRIPOS>BOND
     1    20    21    1
     2    21    22    1
     3    21    19    1
     4    19    11    1
     5    11    12    2
     6    11    13   am
     7    13    14    1
     8    14    15    1
     9    15    16    1
    10    16     5    1
    11     5     6   ar
    12     6     7   ar
    13     7     8   ar
    14     8     1    1
    15     1     2   am
    16     2     3    2
    17     2    23    1
    18    23    24   ar
    19    24    25   ar
    20    25    28    1
    21    28    29    1
    22    29    30    1
    23    30    31    1
    24    31    32    1
    25    32    33    1
    26    25    26   ar
    27    26    27   ar
    28    27    34    1
    29    34    35    1
    30    34    36    1
    31    34    37    1
    32     8     9   ar
    33     9    10   ar
    34    16    17    1
    35    17    18    1
    36    18    13    1
    37    10     5   ar
    38    27    23   ar
    39    33    28    1
    40     1     4    1
@<TRIPOS>MOLECULE
*****
 37 40 0 0 0
SMALL
GASTEIGER

@<TRIPOS>ATOM
      1 N          61.1106   90.1006    6.7849 N.am    1  UNL1       -0.2766
      2 C          60.1749   89.1244    7.4342 C.2     1  UNL1        0.2859
      3 O          58.8018   88.9120    6.8688 O.2     1  UNL1       -0.2664
      4 H          62.0117   90.2400    7.1560 H       1  UNL1        0.1553
      5 C          59.7987   92.3918    3.1409 C.ar    1  UNL1        0.1319
      6 C          58.8028   92.0452    4.2076 C.ar    1  UNL1        0.0356
      7 C          59.2401   91.2814    5.4223 C.ar    1  UNL1        0.0191
      8 C          60.6733   90.8643    5.5703 C.ar    1  UNL1        0.0702
      9 C          61.6692   91.2109    4.5035 C.ar    1  UNL1        0.1149
     10 N          61.2319   91.9747    3.2888 N.ar    1  UNL1       -0.2279
     11 C          58.0495   95.4468   -1.7178 C.2     1  UNL1        0.4049
     12 O          58.5225   96.8545   -1.9292 O.2     1  UNL1       -0.2262
     13 N          58.4868   94.6831   -0.5032 N.am    1  UNL1       -0.2425
     14 C          58.0137   93.2754   -0.2918 C.3     1  UNL1        0.1182
     15 C          58.4510   92.5117    0.9229 C.3     1  UNL1        0.1138
     16 N          59.3614   93.1556    1.9262 N.pl3   1  UNL1       -0.2897
     17 C          59.8344   94.5632    1.7148 C.3     1  UNL1        0.1138
     18 C          59.3971   95.3270    0.5002 C.3     1  UNL1        0.1182
     19 O          57.1391   94.8029   -2.7211 O.3     1  UNL1       -0.4383
     20 C          56.8328   93.2563   -4.7861 C.3     1  UNL1        0.0474
     21 C          57.7156   94.0980   -3.9131 C.3     1  UNL1        0.1707
     22 C          59.1749   94.2348   -4.2320 C.3     1  UNL1        0.0474
     23 C          60.6122   88.3607    8.6489 C.ar    1  UNL1        0.2233
     24 O          61.3318   87.0446    8.6511 O.2     1  UNL1       -0.4191
     25 C          61.5710   86.6494   10.0782 C.ar    1  UNL1        0.2925
     26 N          60.9992   87.7213   10.9580 N.ar    1  UNL1       -0.1904
     27 C          60.4066   88.7790   10.0747 C.ar    1  UNL1        0.1959
     28 N          62.2609   85.4016   10.5438 N.pl3   1  UNL1       -0.2636
     29 C          63.0829   84.5956    9.5821 C.3     1  UNL1        0.0951
     30 C          63.7727   83.3477   10.0478 C.3     1  UNL1        0.0216
     31 C          63.6406   82.9058   11.4751 C.3     1  UNL1        0.0035
     32 C          62.8187   83.7117   12.4368 C.3     1  UNL1        0.0216
     33 C          62.1288   84.9596   11.9711 C.3     1  UNL1        0.0951
     34 C          59.7277   90.0343   10.5361 C.3     1  UNL1        0.4381
     35 F          59.0486   91.2897   10.9975 F       1  UNL1       -0.1643
     36 F          60.7758   90.8552    9.8451 F       1  UNL1       -0.1643
     37 F          58.6795   89.2135   11.2271 F       1  UNL1       -0.1643
@<TRIPOS>BOND
     1    20    21    1
     2    21    22    1
     3    21    19    1
     4    19    11    1
     5    11    12    2
     6    11    13   am
     7    13    14    1
     8    14    15    1
     9    15    16    1
    10    16     5    1
    11     5     6   ar
    12     6     7   ar
    13     7     8   ar
    14     8     1    1
    15     1     2   am
    16     2     3    2
    17     2    23    1
    18    23    24   ar
    19    24    25   ar
    20    25    28    1
    21    28    29    1
    22    29    30    1
    23    30    31    1
    24    31    32    1
    25    32    33    1
    26    25    26   ar
    27    26    27   ar
    28    27    34    1
    29    34    35    1
    30    34    36    1
    31    34    37    1
    32     8     9   ar
    33     9    10   ar
    34    16    17    1
    35    17    18    1
    36    18    13    1
    37    10     5   ar
    38    27    23   ar
    39    33    28    1
    40     1     4    1
@<TRIPOS>MOLECULE
*****
 37 40 0 0 0
SMALL
GASTEIGER

@<TRIPOS>ATOM
      1 N          59.8563   89.2956    7.4370 N.am    1  UNL1       -0.2766
      2 C          60.9113   89.5139    8.4806 C.2     1  UNL1        0.2859
      3 O          61.8970   90.6343    8.3278 O.2     1  UNL1       -0.2664
      4 H          59.2094   88.5603    7.5373 H       1  UNL1        0.1553
      5 C          59.6478   92.0018    3.8477 C.ar    1  UNL1        0.1319
      6 C          60.9617   91.4122    4.2671 C.ar    1  UNL1        0.0356
      7 C          61.0312   90.5101    5.4636 C.ar    1  UNL1        0.0191
      8 C          59.7868   90.1977    6.2405 C.ar    1  UNL1        0.0702
      9 C          58.4729   90.7872    5.8210 C.ar    1  UNL1        0.1149
     10 N          58.4034   91.6893    4.6246 N.ar    1  UNL1       -0.2279
     11 C          59.3699   95.6100   -0.9381 C.2     1  UNL1        0.4049
     12 O          58.4662   95.2665   -2.0849 O.2     1  UNL1       -0.2262
     13 N          59.4394   94.7079    0.2583 N.am    1  UNL1       -0.2425
     14 C          60.3431   95.0514    1.4051 C.3     1  UNL1        0.1182
     15 C          60.4126   94.1494    2.6016 C.3     1  UNL1        0.1138
     16 N          59.5783   92.9038    2.6512 N.pl3   1  UNL1       -0.2897
     17 C          58.6746   92.5603    1.5044 C.3     1  UNL1        0.1138
     18 C          58.6051   93.4624    0.3080 C.3     1  UNL1        0.1182
     19 O          60.2042   96.8556   -0.9877 O.3     1  UNL1       -0.4383
     20 C          62.7961   96.8503   -0.8083 C.3     1  UNL1        0.0474
     21 C          61.5518   96.8299   -1.6459 C.3     1  UNL1        0.1707
     22 C          61.6553   96.7839   -3.1416 C.3     1  UNL1        0.0474
     23 C          60.9808   88.6118    9.6770 C.ar    1  UNL1        0.2233
     24 O          61.7221   87.3103    9.7581 O.2     1  UNL1       -0.4191
     25 C          61.5206   86.7470   11.1336 C.ar    1  UNL1        0.2925
     26 N          60.6548   87.7004   11.9027 N.ar    1  UNL1       -0.1904
     27 C          60.3211   88.8529   11.0025 C.ar    1  UNL1        0.1959
     28 N          62.0857   85.4569   11.6496 N.pl3   1  UNL1       -0.2636
     29 C          62.1686   85.2121   13.1271 C.3     1  UNL1        0.0951
     30 C          62.7337   83.9219   13.6430 C.3     1  UNL1        0.0216
     31 C          63.2159   82.8766   12.6813 C.3     1  UNL1        0.0035
     32 C          63.1330   83.1214   11.2037 C.3     1  UNL1        0.0216
     33 C          62.5679   84.4116   10.6879 C.3     1  UNL1        0.0951
     34 C          59.4763   90.0383   11.3642 C.3     1  UNL1        0.4381
     35 F          58.6313   91.2238   11.7259 F       1  UNL1       -0.1643
     36 F          60.5782   90.9572   10.9269 F       1  UNL1       -0.1643
     37 F          58.3742   89.1195   11.8015 F       1  UNL1       -0.1643
@<TRIPOS>BOND
     1    20    21    1
     2    21    22    1
     3    21    19    1
     4    19    11    1
     5    11    12    2
     6    11    13   am
     7    13    14    1
     8    14    15    1
     9    15    16    1
    10    16     5    1
    11     5     6   ar
    12     6     7   ar
    13     7     8   ar
    14     8     1    1
    15     1     2   am
    16     2     3    2
    17     2    23    1
    18    23    24   ar
    19    24    25   ar
    20    25    28    1
    21    28    29    1
    22    29    30    1
    23    30    31    1
    24    31    32    1
    25    32    33    1
    26    25    26   ar
    27    26    27   ar
    28    27    34    1
    29    34    35    1
    30    34    36    1
    31    34    37    1
    32     8     9   ar
    33     9    10   ar
    34    16    17    1
    35    17    18    1
    36    18    13    1
    37    10     5   ar
    38    27    23   ar
    39    33    28    1
    40     1     4    1
@<TRIPOS>MOLECULE
*****
 37 40 0 0 0
SMALL
GASTEIGER

@<TRIPOS>ATOM
      1 N          59.5054   89.9157    6.5719 N.am    1  UNL1       -0.2766
      2 C          60.3704   90.6544    5.5942 C.2     1  UNL1        0.2859
      3 O          61.8622   90.5089    5.6534 O.2     1  UNL1       -0.2664
      4 H          58.5263   90.0113    6.5330 H       1  UNL1        0.1553
      5 C          61.3854   87.2631    9.6830 C.ar    1  UNL1        0.1319
      6 C          61.5050   88.7539    9.7970 C.ar    1  UNL1        0.0356
      7 C          60.8783   89.6381    8.7600 C.ar    1  UNL1        0.0191
      8 C          60.1320   89.0315    7.6089 C.ar    1  UNL1        0.0702
      9 C          60.0124   87.5407    7.4949 C.ar    1  UNL1        0.1149
     10 N          60.6391   86.6564    8.5319 N.ar    1  UNL1       -0.2279
     11 C          63.8920   83.7261   13.8311 C.2     1  UNL1        0.4049
     12 O          64.4019   84.3173   15.1119 O.2     1  UNL1       -0.2262
     13 N          63.2654   84.6104   12.7941 N.am    1  UNL1       -0.2425
     14 C          62.7555   84.0192   11.5133 C.3     1  UNL1        0.1182
     15 C          62.1288   84.9034   10.4763 C.3     1  UNL1        0.1138
     16 N          62.0120   86.3788   10.7200 N.pl3   1  UNL1       -0.2897
     17 C          62.5219   86.9700   12.0008 C.3     1  UNL1        0.1138
     18 C          63.1486   86.0858   13.0378 C.3     1  UNL1        0.1182
     19 O          64.0088   82.2507   13.5874 O.3     1  UNL1       -0.4383
     20 C          62.6877   80.3496   12.4080 C.3     1  UNL1        0.0474
     21 C          62.7722   81.4106   13.4651 C.3     1  UNL1        0.1707
     22 C          61.6201   81.6313   14.4000 C.3     1  UNL1        0.0474
     23 C          59.7438   91.5386    4.5571 C.ar    1  UNL1        0.2233
     24 O          60.4779   92.3854    3.5601 O.2     1  UNL1       -0.4191
     25 C          59.4608   93.1015    2.7218 C.ar    1  UNL1        0.2925
     26 N          58.0980   92.6972    3.2007 N.ar    1  UNL1       -0.1904
     27 C          58.2728   91.7313    4.3350 C.ar    1  UNL1        0.1959
     28 N          59.7548   94.0544    1.6014 N.pl3   1  UNL1       -0.2636
     29 C          60.5824   95.2792    1.8562 C.3     1  UNL1        0.0951
     30 C          60.8764   96.2321    0.7357 C.3     1  UNL1        0.0216
     31 C          60.3428   95.9602   -0.6396 C.3     1  UNL1        0.0035
     32 C          59.5152   94.7354   -0.8944 C.3     1  UNL1        0.0216
     33 C          59.2212   93.7825    0.2261 C.3     1  UNL1        0.0951
     34 C          57.1704   91.0737    5.1108 C.3     1  UNL1        0.4381
     35 F          56.0679   90.4160    5.8867 F       1  UNL1       -0.1643
     36 F          57.9234   89.7768    5.0816 F       1  UNL1       -0.1643
     37 F          56.4173   92.3706    5.1402 F       1  UNL1       -0.1643
@<TRIPOS>BOND
     1    20    21    1
     2    21    22    1
     3    21    19    1
     4    19    11    1
     5    11    12    2
     6    11    13   am
     7    13    14    1
     8    14    15    1
     9    15    16    1
    10    16     5    1
    11     5     6   ar
    12     6     7   ar
    13     7     8   ar
    14     8     1    1
    15     1     2   am
    16     2     3    2
    17     2    23    1
    18    23    24   ar
    19    24    25   ar
    20    25    28    1
    21    28    29    1
    22    29    30    1
    23    30    31    1
    24    31    32    1
    25    32    33    1
    26    25    26   ar
    27    26    27   ar
    28    27    34    1
    29    34    35    1
    30    34    36    1
    31    34    37    1
    32     8     9   ar
    33     9    10   ar
    34    16    17    1
    35    17    18    1
    36    18    13    1
    37    10     5   ar
    38    27    23   ar
    39    33    28    1
    40     1     4    1
