@<TRIPOS>MOLECULE
*****
 32 35 0 0 0
SMALL
GASTEIGER

@<TRIPOS>ATOM
      1 C          63.4006   87.6052   12.6501 C.ar    1  UNL1        0.1390
      2 C          63.3832   86.1934   13.1564 C.ar    1  UNL1        0.0733
      3 C          62.5071   85.1704   12.4959 C.ar    1  UNL1        0.1679
      4 N          61.6484   85.5595   11.3292 N.ar    1  UNL1       -0.2061
      5 C          61.6657   86.9714   10.8230 C.ar    1  UNL1        0.1828
      6 N          62.5418   87.9942   11.4834 N.ar    1  UNL1       -0.2101
      7 N          62.4898   83.7586   13.0021 N.ar    1  UNL1       -0.2164
      8 N          62.5679   82.5193   12.1607 N.ar    1  UNL1       -0.1684
      9 C          62.5177   81.3329   13.0772 C.ar    1  UNL1        0.0805
     10 C          62.5679   79.8931   12.6593 C.3     1  UNL1        0.0540
     11 C          62.4085   81.8390   14.4851 C.ar    1  UNL1        0.0312
     12 C          62.3913   83.3382   14.4386 C.ar    1  UNL1        0.0637
     13 C          62.2928   84.2558   15.6211 C.3     1  UNL1        0.0522
     14 C          60.8070   87.3604    9.6563 C.ar    1  UNL1        0.1171
     15 C          60.6471   88.8068    9.2919 C.ar    1  UNL1        0.0223
     16 C          59.7883   89.1958    8.1252 C.ar    1  UNL1        0.0032
     17 C          59.0894   88.1385    7.3229 C.ar    1  UNL1        0.0207
     18 C          59.2493   86.6923    7.6872 C.ar    1  UNL1        0.0989
     19 N          60.1081   86.3032    8.8539 N.ar    1  UNL1       -0.2407
     20 C          63.6646   89.7102   14.1500 C.2     1  UNL1        0.2316
     21 O          62.1765   89.7693   14.3289 O.2     1  UNL1       -0.2744
     22 N          64.2767   88.6281   13.3106 N.am    1  UNL1       -0.2689
     23 H          65.2534   88.5893   13.1931 H       1  UNL1        0.1563
     24 C          64.5407   90.7330   14.8104 C.3     1  UNL1        0.1117
     25 C          66.3526   94.0541   12.3737 C.ar    1  UNL1        0.1387
     26 C          66.6534   93.9492   13.8395 C.ar    1  UNL1        0.0366
     27 C          66.0494   92.8422   14.6517 C.ar    1  UNL1       -0.0007
     28 C          65.1446   91.8401   13.9982 C.ar    1  UNL1       -0.0129
     29 C          64.8438   91.9450   12.5325 C.ar    1  UNL1       -0.0007
     30 C          65.4478   93.0520   11.7202 C.ar    1  UNL1        0.0366
     31 C          67.0034   95.0546   10.0660 C.3     1  UNL1        0.2525
     32 O          66.9565   95.1611   11.5615 O.3     1  UNL1       -0.4714
@<TRIPOS>BOND
     1    31    32    1
     2    32    25    1
     3    25    26   ar
     4    26    27   ar
     5    27    28   ar
     6    28    24    1
     7    24    20    1
     8    20    21    2
     9    20    22   am
    10    22     1    1
    11     1     2   ar
    12     2     3   ar
    13     3     7    1
    14     7     8   ar
    15     8     9   ar
    16     9    10    1
    17     9    11   ar
    18    11    12   ar
    19    12    13    1
    20     3     4   ar
    21     4     5   ar
    22     5    14    1
    23    14    15   ar
    24    15    16   ar
    25    16    17   ar
    26    17    18   ar
    27    18    19   ar
    28     5     6   ar
    29    28    29   ar
    30    29    30   ar
    31    30    25   ar
    32     6     1   ar
    33    12     7   ar
    34    19    14   ar
    35    22    23    1
@<TRIPOS>MOLECULE
*****
 32 35 0 0 0
SMALL
GASTEIGER

@<TRIPOS>ATOM
      1 C          61.3023   87.2205    9.8368 C.ar    1  UNL1        0.1390
      2 C          61.9710   88.4395   10.3997 C.ar    1  UNL1        0.0733
      3 C          62.7930   88.3342   11.6500 C.ar    1  UNL1        0.1679
      4 N          62.9462   87.0098   12.3375 N.ar    1  UNL1       -0.2061
      5 C          62.2774   85.7908   11.7746 C.ar    1  UNL1        0.1828
      6 N          61.4555   85.8961   10.5243 N.ar    1  UNL1       -0.2101
      7 N          63.4617   89.5531   12.2129 N.ar    1  UNL1       -0.2164
      8 N          64.1060   89.6611   13.5631 N.ar    1  UNL1       -0.1684
      9 C          64.6460   91.0529   13.7091 C.ar    1  UNL1        0.0805
     10 C          65.3696   91.5969   14.9051 C.3     1  UNL1        0.0540
     11 C          64.3354   91.8052   12.4490 C.ar    1  UNL1        0.0312
     12 C          63.6034   90.8782   11.5243 C.ar    1  UNL1        0.0637
     13 C          63.1014   91.2169   10.1520 C.3     1  UNL1        0.0522
     14 C          62.4307   84.4664   12.4620 C.ar    1  UNL1        0.1171
     15 C          62.6757   83.2262   11.6546 C.ar    1  UNL1        0.0223
     16 C          62.8290   81.9018   12.3420 C.ar    1  UNL1        0.0032
     17 C          62.7371   81.8177   13.8369 C.ar    1  UNL1        0.0207
     18 C          62.4921   83.0578   14.6442 C.ar    1  UNL1        0.0989
     19 N          62.3388   84.3822   13.9568 N.ar    1  UNL1       -0.2407
     20 C          59.7896   88.6140    8.2493 C.2     1  UNL1        0.2316
     21 O          59.9209   89.7968    9.1625 O.2     1  UNL1       -0.2744
     22 N          60.4803   87.3258    8.5865 N.am    1  UNL1       -0.2689
     23 H          60.3941   86.5495    7.9872 H       1  UNL1        0.1563
     24 C          58.9676   88.7193    6.9990 C.3     1  UNL1        0.1117
     25 C          59.4993   92.2397    4.2468 C.ar    1  UNL1        0.1387
     26 C          60.6937   91.4500    4.6938 C.ar    1  UNL1        0.0366
     27 C          60.5164   90.2766    5.6112 C.ar    1  UNL1       -0.0007
     28 C          59.1448   89.8928    6.0816 C.ar    1  UNL1       -0.0129
     29 C          57.9504   90.6824    5.6346 C.ar    1  UNL1       -0.0007
     30 C          58.1277   91.8559    4.7172 C.ar    1  UNL1        0.0366
     31 C          59.7201   93.2045    1.8447 C.3     1  UNL1        0.2525
     32 O          59.6765   93.4131    3.3294 O.3     1  UNL1       -0.4714
@<TRIPOS>BOND
     1    31    32    1
     2    32    25    1
     3    25    26   ar
     4    26    27   ar
     5    27    28   ar
     6    28    24    1
     7    24    20    1
     8    20    21    2
     9    20    22   am
    10    22     1    1
    11     1     2   ar
    12     2     3   ar
    13     3     7    1
    14     7     8   ar
    15     8     9   ar
    16     9    10    1
    17     9    11   ar
    18    11    12   ar
    19    12    13    1
    20     3     4   ar
    21     4     5   ar
    22     5    14    1
    23    14    15   ar
    24    15    16   ar
    25    16    17   ar
    26    17    18   ar
    27    18    19   ar
    28     5     6   ar
    29    28    29   ar
    30    29    30   ar
    31    30    25   ar
    32     6     1   ar
    33    12     7   ar
    34    19    14   ar
    35    22    23    1
@<TRIPOS>MOLECULE
*****
 32 35 0 0 0
SMALL
GASTEIGER

@<TRIPOS>ATOM
      1 C          61.1607   88.9380   10.1396 C.ar    1  UNL1        0.1390
      2 C          62.0526   89.9787   10.7491 C.ar    1  UNL1        0.0733
      3 C          63.1002   89.5784   11.7454 C.ar    1  UNL1        0.1679
      4 N          63.2558   88.1375   12.1321 N.ar    1  UNL1       -0.2061
      5 C          62.3638   87.0968   11.5225 C.ar    1  UNL1        0.1828
      6 N          61.3163   87.4971   10.5263 N.ar    1  UNL1       -0.2101
      7 N          63.9921   90.6190   12.3549 N.ar    1  UNL1       -0.2164
      8 N          64.5985   91.7894   11.6390 N.ar    1  UNL1       -0.1684
      9 C          65.4154   92.5657   12.6289 C.ar    1  UNL1        0.0805
     10 C          66.1967   93.8136   12.3416 C.3     1  UNL1        0.0540
     11 C          65.3139   91.8751   13.9567 C.ar    1  UNL1        0.0312
     12 C          64.4343   90.6720   13.7873 C.ar    1  UNL1        0.0637
     13 C          64.0621   89.6936   14.8616 C.3     1  UNL1        0.0522
     14 C          62.5194   85.6559   11.9092 C.ar    1  UNL1        0.1171
     15 C          62.6906   84.6090   10.8486 C.ar    1  UNL1        0.0223
     16 C          62.8462   83.1681   11.2353 C.ar    1  UNL1        0.0032
     17 C          62.8306   82.7740   12.6826 C.ar    1  UNL1        0.0207
     18 C          62.6594   83.8209   13.7431 C.ar    1  UNL1        0.0989
     19 N          62.5038   85.2618   13.3564 N.ar    1  UNL1       -0.2407
     20 C          59.7963   88.4385    7.9858 C.2     1  UNL1        0.2316
     21 O          60.5270   87.1385    7.8245 O.2     1  UNL1       -0.2744
     22 N          60.1132   89.3383    9.1433 N.am    1  UNL1       -0.2689
     23 H          59.6336   90.1916    9.2492 H       1  UNL1        0.1563
     24 C          58.7488   88.8387    6.9896 C.3     1  UNL1        0.1117
     25 C          59.5047   92.2790    4.1890 C.ar    1  UNL1        0.1387
     26 C          58.1078   91.9737    4.6420 C.ar    1  UNL1        0.0366
     27 C          57.8558   90.8269    5.5755 C.ar    1  UNL1       -0.0007
     28 C          59.0008   89.9855    6.0560 C.ar    1  UNL1       -0.0129
     29 C          60.3977   90.2908    5.6030 C.ar    1  UNL1       -0.0007
     30 C          60.6497   91.4376    4.6695 C.ar    1  UNL1        0.0366
     31 C          59.9037   93.1764    1.7837 C.3     1  UNL1        0.2525
     32 O          59.7567   93.4258    3.2555 O.3     1  UNL1       -0.4714
@<TRIPOS>BOND
     1    31    32    1
     2    32    25    1
     3    25    26   ar
     4    26    27   ar
     5    27    28   ar
     6    28    24    1
     7    24    20    1
     8    20    21    2
     9    20    22   am
    10    22     1    1
    11     1     2   ar
    12     2     3   ar
    13     3     7    1
    14     7     8   ar
    15     8     9   ar
    16     9    10    1
    17     9    11   ar
    18    11    12   ar
    19    12    13    1
    20     3     4   ar
    21     4     5   ar
    22     5    14    1
    23    14    15   ar
    24    15    16   ar
    25    16    17   ar
    26    17    18   ar
    27    18    19   ar
    28     5     6   ar
    29    28    29   ar
    30    29    30   ar
    31    30    25   ar
    32     6     1   ar
    33    12     7   ar
    34    19    14   ar
    35    22    23    1
@<TRIPOS>MOLECULE
*****
 32 35 0 0 0
SMALL
GASTEIGER

@<TRIPOS>ATOM
      1 C          61.1238   88.8538   10.2204 C.ar    1  UNL1        0.1390
      2 C          61.2839   87.4095   10.5924 C.ar    1  UNL1        0.0733
      3 C          62.3415   87.0008   11.5746 C.ar    1  UNL1        0.1679
      4 N          63.2389   88.0364   12.1846 N.ar    1  UNL1       -0.2061
      5 C          63.0787   89.4808   11.8125 C.ar    1  UNL1        0.1828
      6 N          62.0212   89.8894   10.8305 N.ar    1  UNL1       -0.2101
      7 N          62.5017   85.5566   11.9466 N.ar    1  UNL1       -0.2164
      8 N          62.2946   84.9695   13.3113 N.ar    1  UNL1       -0.1684
      9 C          62.5620   83.4959   13.2274 C.ar    1  UNL1        0.0805
     10 C          62.4727   82.5177   14.3610 C.3     1  UNL1        0.0540
     11 C          62.9343   83.1722   11.8108 C.ar    1  UNL1        0.0312
     12 C          62.8970   84.4458   11.0192 C.ar    1  UNL1        0.0637
     13 C          63.2017   84.5843    9.5571 C.3     1  UNL1        0.0522
     14 C          63.9762   90.5164   12.4226 C.ar    1  UNL1        0.1171
     15 C          64.3823   90.4027   13.8621 C.ar    1  UNL1        0.0223
     16 C          65.2797   91.4383   14.4722 C.ar    1  UNL1        0.0032
     17 C          65.7710   92.5876   13.6427 C.ar    1  UNL1        0.0207
     18 C          65.3648   92.7012   12.2033 C.ar    1  UNL1        0.0989
     19 N          64.4674   91.6656   11.5932 N.ar    1  UNL1       -0.2407
     20 C          59.7966   88.4150    8.0304 C.2     1  UNL1        0.2316
     21 O          60.5847   87.1587    7.8046 O.2     1  UNL1       -0.2744
     22 N          60.0662   89.2625    9.2383 N.am    1  UNL1       -0.2689
     23 H          59.5490   90.0870    9.3864 H       1  UNL1        0.1563
     24 C          58.7391   88.8236    7.0482 C.3     1  UNL1        0.1117
     25 C          59.5017   92.2295    4.2077 C.ar    1  UNL1        0.1387
     26 C          58.0996   91.9050    4.6304 C.ar    1  UNL1        0.0366
     27 C          57.8454   90.7697    5.5773 C.ar    1  UNL1       -0.0007
     28 C          58.9933   89.9589    6.1014 C.ar    1  UNL1       -0.0129
     29 C          60.3954   90.2833    5.6787 C.ar    1  UNL1       -0.0007
     30 C          60.6497   91.4186    4.7319 C.ar    1  UNL1        0.0366
     31 C          59.6605   93.1424    1.7805 C.3     1  UNL1        0.2525
     32 O          59.7559   93.3647    3.2609 O.3     1  UNL1       -0.4714
@<TRIPOS>BOND
     1    31    32    1
     2    32    25    1
     3    25    26   ar
     4    26    27   ar
     5    27    28   ar
     6    28    24    1
     7    24    20    1
     8    20    21    2
     9    20    22   am
    10    22     1    1
    11     1     2   ar
    12     2     3   ar
    13     3     7    1
    14     7     8   ar
    15     8     9   ar
    16     9    10    1
    17     9    11   ar
    18    11    12   ar
    19    12    13    1
    20     3     4   ar
    21     4     5   ar
    22     5    14    1
    23    14    15   ar
    24    15    16   ar
    25    16    17   ar
    26    17    18   ar
    27    18    19   ar
    28     5     6   ar
    29    28    29   ar
    30    29    30   ar
    31    30    25   ar
    32     6     1   ar
    33    12     7   ar
    34    19    14   ar
    35    22    23    1
@<TRIPOS>MOLECULE
*****
 32 35 0 0 0
SMALL
GASTEIGER

@<TRIPOS>ATOM
      1 C          61.1940   88.6558   10.4758 C.ar    1  UNL1        0.1390
      2 C          61.4361   87.2206   10.8383 C.ar    1  UNL1        0.0733
      3 C          62.5367   86.8634   11.7928 C.ar    1  UNL1        0.1679
      4 N          63.3953   87.9416   12.3848 N.ar    1  UNL1       -0.2061
      5 C          63.1532   89.3769   12.0222 C.ar    1  UNL1        0.1828
      6 N          62.0526   89.7340   11.0678 N.ar    1  UNL1       -0.2101
      7 N          62.7788   85.4282   12.1553 N.ar    1  UNL1       -0.2164
      8 N          62.4553   84.2370   11.3031 N.ar    1  UNL1       -0.1684
      9 C          62.8634   83.0047   12.0548 C.ar    1  UNL1        0.0805
     10 C          62.7208   81.5910   11.5741 C.3     1  UNL1        0.0540
     11 C          63.4391   83.4344   13.3716 C.ar    1  UNL1        0.0312
     12 C          63.3868   84.9322   13.4337 C.ar    1  UNL1        0.0637
     13 C          63.8596   85.7843   14.5741 C.3     1  UNL1        0.0522
     14 C          64.0118   90.4550   12.6142 C.ar    1  UNL1        0.1171
     15 C          64.4574   91.6093   11.7661 C.ar    1  UNL1        0.0223
     16 C          65.3160   92.6874   12.3581 C.ar    1  UNL1        0.0032
     17 C          65.7289   92.6114   13.7982 C.ar    1  UNL1        0.0207
     18 C          65.2832   91.4572   14.6462 C.ar    1  UNL1        0.0989
     19 N          64.4247   90.3790   14.0542 N.ar    1  UNL1       -0.2407
     20 C          59.9536   88.2698    8.2257 C.2     1  UNL1        0.2316
     21 O          60.9145   87.1696    7.8848 O.2     1  UNL1       -0.2744
     22 N          60.0934   89.0129    9.5212 N.am    1  UNL1       -0.2689
     23 H          59.4627   89.7351    9.7450 H       1  UNL1        0.1563
     24 C          58.8530   88.6269    7.2712 C.3     1  UNL1        0.1117
     25 C          59.3846   92.0550    4.4049 C.ar    1  UNL1        0.1387
     26 C          58.0095   91.6610    4.8561 C.ar    1  UNL1        0.0366
     27 C          57.8323   90.5183    5.8115 C.ar    1  UNL1       -0.0007
     28 C          59.0302   89.7696    6.3158 C.ar    1  UNL1       -0.0129
     29 C          60.4054   90.1637    5.8647 C.ar    1  UNL1       -0.0007
     30 C          60.5826   91.3064    4.9092 C.ar    1  UNL1        0.0366
     31 C          59.7708   92.9285    1.9888 C.3     1  UNL1        0.2525
     32 O          59.5618   93.1977    3.4495 O.3     1  UNL1       -0.4714
@<TRIPOS>BOND
     1    31    32    1
     2    32    25    1
     3    25    26   ar
     4    26    27   ar
     5    27    28   ar
     6    28    24    1
     7    24    20    1
     8    20    21    2
     9    20    22   am
    10    22     1    1
    11     1     2   ar
    12     2     3   ar
    13     3     7    1
    14     7     8   ar
    15     8     9   ar
    16     9    10    1
    17     9    11   ar
    18    11    12   ar
    19    12    13    1
    20     3     4   ar
    21     4     5   ar
    22     5    14    1
    23    14    15   ar
    24    15    16   ar
    25    16    17   ar
    26    17    18   ar
    27    18    19   ar
    28     5     6   ar
    29    28    29   ar
    30    29    30   ar
    31    30    25   ar
    32     6     1   ar
    33    12     7   ar
    34    19    14   ar
    35    22    23    1
@<TRIPOS>MOLECULE
*****
 32 35 0 0 0
SMALL
GASTEIGER

@<TRIPOS>ATOM
      1 C          63.3649   89.9894   12.3847 C.ar    1  UNL1        0.1390
      2 C          64.3597   91.0803   12.6502 C.ar    1  UNL1        0.0733
      3 C          65.0801   91.1347   13.9648 C.ar    1  UNL1        0.1679
      4 N          64.8057   90.0983   15.0138 N.ar    1  UNL1       -0.2061
      5 C          63.8109   89.0074   14.7482 C.ar    1  UNL1        0.1828
      6 N          63.0906   88.9530   13.4337 N.ar    1  UNL1       -0.2101
      7 N          66.0748   92.2256   14.2303 N.ar    1  UNL1       -0.2164
      8 N          66.9557   92.3404   15.4389 N.ar    1  UNL1       -0.1684
      9 C          67.7886   93.5789   15.2894 C.ar    1  UNL1        0.0805
     10 C          68.8087   94.0790   16.2689 C.3     1  UNL1        0.0540
     11 C          67.4225   94.2295   13.9883 C.ar    1  UNL1        0.0312
     12 C          66.3633   93.3931   13.3338 C.ar    1  UNL1        0.0637
     13 C          65.7076   93.6748   12.0144 C.3     1  UNL1        0.0522
     14 C          63.5366   87.9709   15.7973 C.ar    1  UNL1        0.1171
     15 C          63.0314   88.3858   17.1474 C.ar    1  UNL1        0.0223
     16 C          62.7570   87.3493   18.1965 C.ar    1  UNL1        0.0032
     17 C          62.9878   85.8980   17.8954 C.ar    1  UNL1        0.0207
     18 C          63.4930   85.4833   16.5453 C.ar    1  UNL1        0.0989
     19 N          63.7673   86.5197   15.4963 N.ar    1  UNL1       -0.2407
     20 C          61.1553   89.7588   11.0377 C.2     1  UNL1        0.2316
     21 O          60.3864   89.6370   12.3200 O.2     1  UNL1       -0.2744
     22 N          62.6445   89.9350   11.0700 N.am    1  UNL1       -0.2689
     23 H          63.1492   90.0149   10.2285 H       1  UNL1        0.1563
     24 C          60.4348   89.7044    9.7232 C.3     1  UNL1        0.1117
     25 C          60.4030   85.8930    7.3310 C.ar    1  UNL1        0.1387
     26 C          59.3609   86.9429    7.0829 C.ar    1  UNL1        0.0366
     27 C          59.3715   88.2134    7.8803 C.ar    1  UNL1       -0.0007
     28 C          60.4242   88.4339    8.9258 C.ar    1  UNL1       -0.0129
     29 C          61.4664   87.3840    9.1738 C.ar    1  UNL1       -0.0007
     30 C          61.4558   86.1135    8.3764 C.ar    1  UNL1        0.0366
     31 C          61.6266   84.1865    5.8010 C.3     1  UNL1        0.2525
     32 O          60.3924   84.6226    6.5336 O.3     1  UNL1       -0.4714
@<TRIPOS>BOND
     1    31    32    1
     2    32    25    1
     3    25    26   ar
     4    26    27   ar
     5    27    28   ar
     6    28    24    1
     7    24    20    1
     8    20    21    2
     9    20    22   am
    10    22     1    1
    11     1     2   ar
    12     2     3   ar
    13     3     7    1
    14     7     8   ar
    15     8     9   ar
    16     9    10    1
    17     9    11   ar
    18    11    12   ar
    19    12    13    1
    20     3     4   ar
    21     4     5   ar
    22     5    14    1
    23    14    15   ar
    24    15    16   ar
    25    16    17   ar
    26    17    18   ar
    27    18    19   ar
    28     5     6   ar
    29    28    29   ar
    30    29    30   ar
    31    30    25   ar
    32     6     1   ar
    33    12     7   ar
    34    19    14   ar
    35    22    23    1
@<TRIPOS>MOLECULE
*****
 32 35 0 0 0
SMALL
GASTEIGER

@<TRIPOS>ATOM
      1 C          63.5739   90.4075   11.9756 C.ar    1  UNL1        0.1390
      2 C          63.8864   89.3851   13.0277 C.ar    1  UNL1        0.0733
      3 C          63.2793   88.0157   12.9467 C.ar    1  UNL1        0.1679
      4 N          62.3597   87.6689   11.8136 N.ar    1  UNL1       -0.2061
      5 C          62.0472   88.6914   10.7614 C.ar    1  UNL1        0.1828
      6 N          62.6543   90.0606   10.8425 N.ar    1  UNL1       -0.2101
      7 N          63.5918   86.9933   13.9988 N.ar    1  UNL1       -0.2164
      8 N          63.8435   85.5336   13.7625 N.ar    1  UNL1       -0.1684
      9 C          64.1147   84.8892   15.0896 C.ar    1  UNL1        0.0805
     10 C          64.4170   83.4381   15.3198 C.3     1  UNL1        0.0540
     11 C          64.0306   85.9507   16.1462 C.ar    1  UNL1        0.0312
     12 C          63.7074   87.2511   15.4720 C.ar    1  UNL1        0.0637
     13 C          63.5309   88.5766   16.1517 C.3     1  UNL1        0.0522
     14 C          61.1276   88.3446    9.6282 C.ar    1  UNL1        0.1171
     15 C          60.4770   89.4351    8.8297 C.ar    1  UNL1        0.0223
     16 C          59.5574   89.0883    7.6965 C.ar    1  UNL1        0.0032
     17 C          59.2884   87.6510    7.3619 C.ar    1  UNL1        0.0207
     18 C          59.9390   86.5606    8.1605 C.ar    1  UNL1        0.0989
     19 N          60.8586   86.9074    9.2936 N.ar    1  UNL1       -0.2407
     20 C          65.3509   92.0261   12.9617 C.2     1  UNL1        0.2316
     21 O          65.9138   90.9061   13.7857 O.2     1  UNL1       -0.2744
     22 N          64.1810   91.7768   12.0566 N.am    1  UNL1       -0.2689
     23 H          63.8116   92.5118   11.5158 H       1  UNL1        0.1563
     24 C          65.9581   93.3953   13.0427 C.3     1  UNL1        0.1117
     25 C          66.9129   95.6600    9.2731 C.ar    1  UNL1        0.1387
     26 C          66.9723   94.1612    9.2831 C.ar    1  UNL1        0.0366
     27 C          66.6540   93.4063   10.5396 C.ar    1  UNL1       -0.0007
     28 C          66.2763   94.1502   11.7862 C.ar    1  UNL1       -0.0129
     29 C          66.2169   95.6489   11.7762 C.ar    1  UNL1       -0.0007
     30 C          66.5352   96.4038   10.5197 C.ar    1  UNL1        0.0366
     31 C          66.1244   96.8504    7.1026 C.3     1  UNL1        0.2525
     32 O          67.2311   96.4149    8.0166 O.3     1  UNL1       -0.4714
@<TRIPOS>BOND
     1    31    32    1
     2    32    25    1
     3    25    26   ar
     4    26    27   ar
     5    27    28   ar
     6    28    24    1
     7    24    20    1
     8    20    21    2
     9    20    22   am
    10    22     1    1
    11     1     2   ar
    12     2     3   ar
    13     3     7    1
    14     7     8   ar
    15     8     9   ar
    16     9    10    1
    17     9    11   ar
    18    11    12   ar
    19    12    13    1
    20     3     4   ar
    21     4     5   ar
    22     5    14    1
    23    14    15   ar
    24    15    16   ar
    25    16    17   ar
    26    17    18   ar
    27    18    19   ar
    28     5     6   ar
    29    28    29   ar
    30    29    30   ar
    31    30    25   ar
    32     6     1   ar
    33    12     7   ar
    34    19    14   ar
    35    22    23    1
@<TRIPOS>MOLECULE
*****
 32 35 0 0 0
SMALL
GASTEIGER

@<TRIPOS>ATOM
      1 C          62.2535   86.8712   11.7565 C.ar    1  UNL1        0.1390
      2 C          61.3869   87.0479   10.5451 C.ar    1  UNL1        0.0733
      3 C          61.3561   88.3666    9.8307 C.ar    1  UNL1        0.1679
      4 N          62.1921   89.5085   10.3278 N.ar    1  UNL1       -0.2061
      5 C          63.0588   89.3317   11.5393 C.ar    1  UNL1        0.1828
      6 N          63.0895   88.0131   12.2536 N.ar    1  UNL1       -0.2101
      7 N          60.4895   88.5433    8.6193 N.ar    1  UNL1       -0.2164
      8 N          60.0926   89.8516    8.0024 N.ar    1  UNL1       -0.1684
      9 C          59.2254   89.5596    6.8139 C.ar    1  UNL1        0.0805
     10 C          58.6060   90.5778    5.9029 C.3     1  UNL1        0.0540
     11 C          59.0861   88.0707    6.6962 C.ar    1  UNL1        0.0312
     12 C          59.8674   87.4426    7.8120 C.ar    1  UNL1        0.0637
     13 C          60.0028   85.9720    8.0745 C.3     1  UNL1        0.0522
     14 C          63.8948   90.4736   12.0365 C.ar    1  UNL1        0.1171
     15 C          64.2754   91.5858   11.1046 C.ar    1  UNL1        0.0223
     16 C          65.1114   92.7278   11.6018 C.ar    1  UNL1        0.0032
     17 C          65.5668   92.7575   13.0307 C.ar    1  UNL1        0.0207
     18 C          65.1862   91.6453   13.9624 C.ar    1  UNL1        0.0989
     19 N          64.3502   90.5034   13.4653 N.ar    1  UNL1       -0.2407
     20 C          63.1389   85.3805   13.6915 C.2     1  UNL1        0.2316
     21 O          63.9629   86.5273   14.1977 O.2     1  UNL1       -0.2744
     22 N          62.2842   85.5525   12.4709 N.am    1  UNL1       -0.2689
     23 H          61.7435   84.7999   12.1386 H       1  UNL1        0.1563
     24 C          63.1697   84.0620   14.4058 C.3     1  UNL1        0.1117
     25 C          62.7491   80.2326   12.0801 C.ar    1  UNL1        0.1387
     26 C          63.5540   81.3668   11.5183 C.ar    1  UNL1        0.0366
     27 C          63.6942   82.6432   12.2935 C.ar    1  UNL1       -0.0007
     28 C          63.0295   82.7855   13.6306 C.ar    1  UNL1       -0.0129
     29 C          62.2246   81.6513   14.1925 C.ar    1  UNL1       -0.0007
     30 C          62.0844   80.3749   13.4172 C.ar    1  UNL1        0.0366
     31 C          62.7868   78.9598    9.8155 C.3     1  UNL1        0.2525
     32 O          62.6089   78.9561   11.3049 O.3     1  UNL1       -0.4714
@<TRIPOS>BOND
     1    31    32    1
     2    32    25    1
     3    25    26   ar
     4    26    27   ar
     5    27    28   ar
     6    28    24    1
     7    24    20    1
     8    20    21    2
     9    20    22   am
    10    22     1    1
    11     1     2   ar
    12     2     3   ar
    13     3     7    1
    14     7     8   ar
    15     8     9   ar
    16     9    10    1
    17     9    11   ar
    18    11    12   ar
    19    12    13    1
    20     3     4   ar
    21     4     5   ar
    22     5    14    1
    23    14    15   ar
    24    15    16   ar
    25    16    17   ar
    26    17    18   ar
    27    18    19   ar
    28     5     6   ar
    29    28    29   ar
    30    29    30   ar
    31    30    25   ar
    32     6     1   ar
    33    12     7   ar
    34    19    14   ar
    35    22    23    1
@<TRIPOS>MOLECULE
*****
 32 35 0 0 0
SMALL
GASTEIGER

@<TRIPOS>ATOM
      1 C          63.4453   86.6760   13.0687 C.ar    1  UNL1        0.1390
      2 C          62.5195   86.9990   11.9336 C.ar    1  UNL1        0.0733
      3 C          62.1984   88.4284   11.6111 C.ar    1  UNL1        0.1679
      4 N          62.8032   89.5347   12.4238 N.ar    1  UNL1       -0.2061
      5 C          63.7290   89.2116   13.5589 C.ar    1  UNL1        0.1828
      6 N          64.0501   87.7823   13.8814 N.ar    1  UNL1       -0.2101
      7 N          61.2726   88.7514   10.4760 N.ar    1  UNL1       -0.2164
      8 N          61.0607   87.9184    9.2467 N.ar    1  UNL1       -0.1684
      9 C          60.0533   88.6163    8.3819 C.ar    1  UNL1        0.0805
     10 C          59.5456   88.1344    7.0551 C.3     1  UNL1        0.0540
     11 C          59.6425   89.8807    9.0766 C.ar    1  UNL1        0.0312
     12 C          60.3961   89.9642   10.3709 C.ar    1  UNL1        0.0637
     13 C          60.2916   91.0669   11.3824 C.3     1  UNL1        0.0522
     14 C          64.3338   90.3178   14.3716 C.ar    1  UNL1        0.1171
     15 C          65.5654   91.0207   13.8825 C.ar    1  UNL1        0.0223
     16 C          66.1702   92.1270   14.6952 C.ar    1  UNL1        0.0032
     17 C          65.5433   92.5304   15.9969 C.ar    1  UNL1        0.0207
     18 C          64.3118   91.8275   16.4859 C.ar    1  UNL1        0.0989
     19 N          63.7070   90.7212   15.6732 N.ar    1  UNL1       -0.2407
     20 C          63.2851   84.6415   14.6765 C.2     1  UNL1        0.2316
     21 O          62.4828   85.4657   15.6394 O.2     1  UNL1       -0.2744
     22 N          63.7664   85.2467   13.3912 N.am    1  UNL1       -0.2689
     23 H          64.2930   84.7058   12.7592 H       1  UNL1        0.1563
     24 C          63.6062   83.2122   14.9991 C.3     1  UNL1        0.1117
     25 C          62.8296   79.9897   11.9556 C.ar    1  UNL1        0.1387
     26 C          63.7242   81.1442   11.6139 C.ar    1  UNL1        0.0366
     27 C          63.9831   82.2184   12.6284 C.ar    1  UNL1       -0.0007
     28 C          63.3473   82.1380   13.9846 C.ar    1  UNL1       -0.0129
     29 C          62.4527   80.9835   14.3263 C.ar    1  UNL1       -0.0007
     30 C          62.1939   79.9094   13.3118 C.ar    1  UNL1        0.0366
     31 C          62.8051   79.1872    9.4847 C.3     1  UNL1        0.2525
     32 O          62.5708   78.9155   10.9412 O.3     1  UNL1       -0.4714
@<TRIPOS>BOND
     1    31    32    1
     2    32    25    1
     3    25    26   ar
     4    26    27   ar
     5    27    28   ar
     6    28    24    1
     7    24    20    1
     8    20    21    2
     9    20    22   am
    10    22     1    1
    11     1     2   ar
    12     2     3   ar
    13     3     7    1
    14     7     8   ar
    15     8     9   ar
    16     9    10    1
    17     9    11   ar
    18    11    12   ar
    19    12    13    1
    20     3     4   ar
    21     4     5   ar
    22     5    14    1
    23    14    15   ar
    24    15    16   ar
    25    16    17   ar
    26    17    18   ar
    27    18    19   ar
    28     5     6   ar
    29    28    29   ar
    30    29    30   ar
    31    30    25   ar
    32     6     1   ar
    33    12     7   ar
    34    19    14   ar
    35    22    23    1
