@<TRIPOS>MOLECULE
*****
 32 36 0 0 0
SMALL
GASTEIGER

@<TRIPOS>ATOM
      1 C          65.4115   91.6595   13.5025 C.ar    1  UNL1       -0.0042
      2 C          65.6782   90.6716   14.5993 C.ar    1  UNL1       -0.0014
      3 C          65.0610   89.3056   14.5449 C.ar    1  UNL1        0.0144
      4 C          64.1770   88.9274   13.3936 C.ar    1  UNL1        0.0516
      5 C          63.9102   89.9151   12.2967 C.ar    1  UNL1        0.0144
      6 C          64.5275   91.2812   12.3512 C.ar    1  UNL1       -0.0014
      7 N          63.5598   87.5613   13.3392 N.am    1  UNL1       -0.2681
      8 C          64.1706   86.4309   14.1132 C.2     1  UNL1        0.3077
      9 O          65.3987   86.6666   14.9416 O.2     1  UNL1       -0.2522
     10 N          63.5533   85.0649   14.0587 N.am    1  UNL1       -0.2632
     11 C          63.8676   83.7337   14.6744 C.3     1  UNL1        0.1010
     12 C          62.6804   83.1331   13.9817 C.3     1  UNL1        0.0636
     13 C          62.3662   84.4642   13.3660 C.3     1  UNL1        0.1010
     14 H          62.7537   87.4066   12.7954 H       1  UNL1        0.1564
     15 C          62.0632   81.7670   13.9273 C.ar    1  UNL1       -0.0000
     16 C          60.6131   81.5851   14.2653 C.ar    1  UNL1       -0.0010
     17 C          59.9959   80.2191   14.2109 C.ar    1  UNL1        0.0204
     18 C          60.8288   79.0349   13.8184 C.ar    1  UNL1        0.0989
     19 N          62.2789   79.2168   13.4804 N.ar    1  UNL1       -0.2426
     20 C          62.8960   80.5828   13.5349 C.ar    1  UNL1        0.0947
     21 C          66.4008   93.6281   14.8791 C.3     1  UNL1        0.0264
     22 C          66.0287   93.0255   13.5569 C.3     1  UNL1        0.0985
     23 N          66.2738   93.7888   12.2892 N.am    1  UNL1       -0.2699
     24 C          65.7458   95.1553   11.9666 C.3     1  UNL1        0.1208
     25 C          66.2357   95.5307   10.5994 C.ar    1  UNL1        0.0021
     26 C          66.0326   96.7590    9.7628 C.ar    1  UNL1       -0.0025
     27 C          66.6603   96.8528    8.4037 C.ar    1  UNL1       -0.0003
     28 C          67.4911   95.7184    7.8813 C.ar    1  UNL1        0.0001
     29 C          67.6942   94.4902    8.7180 C.ar    1  UNL1        0.0043
     30 C          67.0665   94.3963   10.0770 C.ar    1  UNL1        0.0512
     31 C          67.0901   93.3198   11.1213 C.2     1  UNL1        0.2492
     32 O          67.8044   92.0050   11.0162 O.2     1  UNL1       -0.2699
@<TRIPOS>BOND
     1    22    21    1
     2    22     1    1
     3     1     2   ar
     4     2     3   ar
     5     3     4   ar
     6     4     7    1
     7     7     8   am
     8     8     9    2
     9     8    10   am
    10    10    11    1
    11    11    12    1
    12    12    15    1
    13    15    16   ar
    14    16    17   ar
    15    17    18   ar
    16    18    19   ar
    17    19    20   ar
    18    12    13    1
    19     4     5   ar
    20     5     6   ar
    21    22    23    1
    22    23    24    1
    23    24    25    1
    24    25    26   ar
    25    26    27   ar
    26    27    28   ar
    27    28    29   ar
    28    29    30   ar
    29    30    31    1
    30    31    32    2
    31     6     1   ar
    32    31    23   am
    33    13    10    1
    34    30    25   ar
    35    20    15   ar
    36     7    14    1
@<TRIPOS>MOLECULE
*****
 32 36 0 0 0
SMALL
GASTEIGER

@<TRIPOS>ATOM
      1 C          59.1445   95.0968   -0.2104 C.ar    1  UNL1       -0.0042
      2 C          59.8280   95.6330    1.0124 C.ar    1  UNL1       -0.0014
      3 C          60.1305   94.7202    2.1636 C.ar    1  UNL1        0.0144
      4 C          59.7495   93.2712    2.0920 C.ar    1  UNL1        0.0516
      5 C          59.0660   92.7349    0.8692 C.ar    1  UNL1        0.0144
      6 C          58.7634   93.6477   -0.2820 C.ar    1  UNL1       -0.0014
      7 N          60.0520   92.3583    3.2433 N.am    1  UNL1       -0.2681
      8 C          58.9401   91.8621    4.1192 C.2     1  UNL1        0.3077
      9 O          57.5256   92.2785    3.8439 O.2     1  UNL1       -0.2522
     10 N          59.2427   90.9493    5.2704 N.am    1  UNL1       -0.2632
     11 C          58.4252   90.2713    6.3296 C.3     1  UNL1        0.1010
     12 C          59.6706   89.6584    6.8984 C.3     1  UNL1        0.0636
     13 C          60.4880   90.3364    5.8392 C.3     1  UNL1        0.1010
     14 H          60.9804   92.0850    3.4239 H       1  UNL1        0.1564
     15 C          59.9731   88.7456    8.0497 C.ar    1  UNL1       -0.0000
     16 C          60.0606   87.2645    7.8295 C.ar    1  UNL1       -0.0010
     17 C          60.3632   86.3517    8.9808 C.ar    1  UNL1        0.0204
     18 C          60.5782   86.9201   10.3522 C.ar    1  UNL1        0.0989
     19 N          60.4906   88.4013   10.5723 N.ar    1  UNL1       -0.2426
     20 C          60.1881   89.3140    9.4210 C.ar    1  UNL1        0.0947
     21 C          59.9300   96.8552   -1.9542 C.3     1  UNL1        0.0264
     22 C          58.8420   96.0096   -1.3616 C.3     1  UNL1        0.0985
     23 N          57.4515   96.0768   -1.9202 N.am    1  UNL1       -0.2699
     24 C          56.2221   96.5063   -1.1758 C.3     1  UNL1        0.1208
     25 C          55.0570   96.4213   -2.1168 C.ar    1  UNL1        0.0021
     26 C          53.5982   96.7205   -1.9375 C.ar    1  UNL1       -0.0025
     27 C          52.6487   96.5377   -3.0843 C.ar    1  UNL1       -0.0003
     28 C          53.1580   96.0557   -4.4102 C.ar    1  UNL1        0.0001
     29 C          54.6169   95.7564   -4.5895 C.ar    1  UNL1        0.0043
     30 C          55.5664   95.9392   -3.4428 C.ar    1  UNL1        0.0512
     31 C          57.0462   95.7263   -3.3212 C.2     1  UNL1        0.2492
     32 O          57.9603   95.2471   -4.4097 O.2     1  UNL1       -0.2699
@<TRIPOS>BOND
     1    22    21    1
     2    22     1    1
     3     1     2   ar
     4     2     3   ar
     5     3     4   ar
     6     4     7    1
     7     7     8   am
     8     8     9    2
     9     8    10   am
    10    10    11    1
    11    11    12    1
    12    12    15    1
    13    15    16   ar
    14    16    17   ar
    15    17    18   ar
    16    18    19   ar
    17    19    20   ar
    18    12    13    1
    19     4     5   ar
    20     5     6   ar
    21    22    23    1
    22    23    24    1
    23    24    25    1
    24    25    26   ar
    25    26    27   ar
    26    27    28   ar
    27    28    29   ar
    28    29    30   ar
    29    30    31    1
    30    31    32    2
    31     6     1   ar
    32    31    23   am
    33    13    10    1
    34    30    25   ar
    35    20    15   ar
    36     7    14    1
@<TRIPOS>MOLECULE
*****
 32 36 0 0 0
SMALL
GASTEIGER

@<TRIPOS>ATOM
      1 C          60.3386   94.9110   -0.7130 C.ar    1  UNL1       -0.0042
      2 C          60.1569   95.5238    0.6441 C.ar    1  UNL1       -0.0014
      3 C          60.2773   94.6728    1.8735 C.ar    1  UNL1        0.0144
      4 C          60.5795   93.2091    1.7458 C.ar    1  UNL1        0.0516
      5 C          60.7612   92.5964    0.3888 C.ar    1  UNL1        0.0144
      6 C          60.6407   93.4474   -0.8406 C.ar    1  UNL1       -0.0014
      7 N          60.6999   92.3582    2.9752 N.am    1  UNL1       -0.2681
      8 C          59.4680   91.9411    3.7224 C.2     1  UNL1        0.3077
      9 O          58.1155   92.3750    3.2401 O.2     1  UNL1       -0.2522
     10 N          59.5885   91.0902    4.9517 N.am    1  UNL1       -0.2632
     11 C          58.6186   90.4953    5.9292 C.3     1  UNL1        0.1010
     12 C          59.7589   89.8868    6.6903 C.3     1  UNL1        0.0636
     13 C          60.7288   90.4816    5.7129 C.3     1  UNL1        0.1010
     14 H          61.5876   92.0734    3.2918 H       1  UNL1        0.1564
     15 C          59.8794   89.0358    7.9198 C.ar    1  UNL1       -0.0000
     16 C          59.7419   87.5457    7.8169 C.ar    1  UNL1       -0.0010
     17 C          59.8623   86.6948    9.0464 C.ar    1  UNL1        0.0204
     18 C          60.1203   87.3340   10.3786 C.ar    1  UNL1        0.0989
     19 N          60.2578   88.8242   10.4814 N.ar    1  UNL1       -0.2426
     20 C          60.1373   89.6751    9.2520 C.ar    1  UNL1        0.0947
     21 C          61.2379   96.8261   -2.2207 C.3     1  UNL1        0.0264
     22 C          60.2181   95.7620   -1.9423 C.3     1  UNL1        0.0985
     23 N          59.0778   95.5489   -2.8932 N.am    1  UNL1       -0.2699
     24 C          59.1942   95.1449   -4.3331 C.3     1  UNL1        0.1208
     25 C          57.8092   95.0486   -4.9010 C.ar    1  UNL1        0.0021
     26 C          57.3079   94.6918   -6.2690 C.ar    1  UNL1       -0.0025
     27 C          55.8342   94.6795   -6.5480 C.ar    1  UNL1       -0.0003
     28 C          54.8617   95.0239   -5.4591 C.ar    1  UNL1        0.0001
     29 C          55.3630   95.3807   -4.0912 C.ar    1  UNL1        0.0043
     30 C          56.8368   95.3931   -3.8121 C.ar    1  UNL1        0.0512
     31 C          57.6208   95.7022   -2.5712 C.2     1  UNL1        0.2492
     32 O          57.0483   96.0957   -1.2418 O.2     1  UNL1       -0.2699
@<TRIPOS>BOND
     1    22    21    1
     2    22     1    1
     3     1     2   ar
     4     2     3   ar
     5     3     4   ar
     6     4     7    1
     7     7     8   am
     8     8     9    2
     9     8    10   am
    10    10    11    1
    11    11    12    1
    12    12    15    1
    13    15    16   ar
    14    16    17   ar
    15    17    18   ar
    16    18    19   ar
    17    19    20   ar
    18    12    13    1
    19     4     5   ar
    20     5     6   ar
    21    22    23    1
    22    23    24    1
    23    24    25    1
    24    25    26   ar
    25    26    27   ar
    26    27    28   ar
    27    28    29   ar
    28    29    30   ar
    29    30    31    1
    30    31    32    2
    31     6     1   ar
    32    31    23   am
    33    13    10    1
    34    30    25   ar
    35    20    15   ar
    36     7    14    1
@<TRIPOS>MOLECULE
*****
 32 36 0 0 0
SMALL
GASTEIGER

@<TRIPOS>ATOM
      1 C          59.9922   88.5063    9.2478 C.ar    1  UNL1       -0.0042
      2 C          59.0845   87.9344    8.1995 C.ar    1  UNL1       -0.0014
      3 C          58.8680   88.6719    6.9115 C.ar    1  UNL1        0.0144
      4 C          59.5591   89.9815    6.6717 C.ar    1  UNL1        0.0516
      5 C          60.4667   90.5534    7.7200 C.ar    1  UNL1        0.0144
      6 C          60.6834   89.8159    9.0081 C.ar    1  UNL1       -0.0014
      7 N          59.3424   90.7190    5.3836 N.am    1  UNL1       -0.2681
      8 C          60.5148   91.2778    4.6330 C.2     1  UNL1        0.3077
      9 O          61.9037   91.0990    5.1705 O.2     1  UNL1       -0.2522
     10 N          60.2981   92.0153    3.3450 N.am    1  UNL1       -0.2632
     11 C          61.1905   92.6920    2.3471 C.3     1  UNL1        0.1010
     12 C          59.9917   93.0583    1.5234 C.3     1  UNL1        0.0636
     13 C          59.0993   92.3817    2.5211 C.3     1  UNL1        0.1010
     14 H          58.4308   90.8364    5.0308 H       1  UNL1        0.1564
     15 C          59.7751   93.7959    0.2353 C.ar    1  UNL1       -0.0000
     16 C          59.8098   93.0548   -1.0683 C.ar    1  UNL1       -0.0010
     17 C          59.5932   93.7923   -2.3565 C.ar    1  UNL1        0.0204
     18 C          59.3418   95.2710   -2.3409 C.ar    1  UNL1        0.0989
     19 N          59.3071   96.0122   -1.0371 N.ar    1  UNL1       -0.2426
     20 C          59.5237   95.2746    0.2509 C.ar    1  UNL1        0.0947
     21 C          59.4386   88.1592   11.7623 C.3     1  UNL1        0.0264
     22 C          60.2088   87.7688   10.5359 C.3     1  UNL1        0.0985
     23 N          61.1956   86.6407   10.5974 N.am    1  UNL1       -0.2699
     24 C          61.7286   86.0027   11.8460 C.3     1  UNL1        0.1208
     25 C          62.6851   84.9203   11.4415 C.ar    1  UNL1        0.0021
     26 C          63.5105   83.9589   12.2440 C.ar    1  UNL1       -0.0025
     27 C          64.3942   82.9666   11.5481 C.ar    1  UNL1       -0.0003
     28 C          64.4524   82.9357   10.0495 C.ar    1  UNL1        0.0001
     29 C          63.6269   83.8971    9.2469 C.ar    1  UNL1        0.0043
     30 C          62.7433   84.8894    9.9429 C.ar    1  UNL1        0.0512
     31 C          61.8227   85.9527    9.4213 C.2     1  UNL1        0.2492
     32 O          61.5732   86.2719    7.9770 O.2     1  UNL1       -0.2699
@<TRIPOS>BOND
     1    22    21    1
     2    22     1    1
     3     1     2   ar
     4     2     3   ar
     5     3     4   ar
     6     4     7    1
     7     7     8   am
     8     8     9    2
     9     8    10   am
    10    10    11    1
    11    11    12    1
    12    12    15    1
    13    15    16   ar
    14    16    17   ar
    15    17    18   ar
    16    18    19   ar
    17    19    20   ar
    18    12    13    1
    19     4     5   ar
    20     5     6   ar
    21    22    23    1
    22    23    24    1
    23    24    25    1
    24    25    26   ar
    25    26    27   ar
    26    27    28   ar
    27    28    29   ar
    28    29    30   ar
    29    30    31    1
    30    31    32    2
    31     6     1   ar
    32    31    23   am
    33    13    10    1
    34    30    25   ar
    35    20    15   ar
    36     7    14    1
@<TRIPOS>MOLECULE
*****
 32 36 0 0 0
SMALL
GASTEIGER

@<TRIPOS>ATOM
      1 C          60.1660   94.6496   -0.2143 C.ar    1  UNL1       -0.0042
      2 C          60.2509   93.1580   -0.3487 C.ar    1  UNL1       -0.0014
      3 C          60.4288   92.3039    0.8715 C.ar    1  UNL1        0.0144
      4 C          60.5218   92.9414    2.2261 C.ar    1  UNL1        0.0516
      5 C          60.4368   94.4329    2.3606 C.ar    1  UNL1        0.0144
      6 C          60.2589   95.2870    1.1404 C.ar    1  UNL1       -0.0014
      7 N          60.6997   92.0872    3.4463 N.am    1  UNL1       -0.2681
      8 C          59.5045   91.6719    4.2519 C.2     1  UNL1        0.3077
      9 O          58.1313   92.1108    3.8373 O.2     1  UNL1       -0.2522
     10 N          59.6824   90.8178    5.4720 N.am    1  UNL1       -0.2632
     11 C          58.7598   90.2234    6.4944 C.3     1  UNL1        0.1010
     12 C          59.9341   89.6098    7.1975 C.3     1  UNL1        0.0636
     13 C          60.8568   90.2041    6.1752 C.3     1  UNL1        0.1010
     14 H          61.6009   91.7991    3.7184 H       1  UNL1        0.1564
     15 C          60.1120   88.7557    8.4177 C.ar    1  UNL1       -0.0000
     16 C          60.5070   87.3158    8.2742 C.ar    1  UNL1       -0.0010
     17 C          60.6849   86.4616    9.4944 C.ar    1  UNL1        0.0204
     18 C          60.4678   87.0474   10.8581 C.ar    1  UNL1        0.0989
     19 N          60.0728   88.4874   11.0016 N.ar    1  UNL1       -0.2426
     20 C          59.8949   89.3415    9.7815 C.ar    1  UNL1        0.0947
     21 C          60.6333   96.8560   -1.5039 C.3     1  UNL1        0.0264
     22 C          59.9881   95.5037   -1.4344 C.3     1  UNL1        0.0985
     23 N          59.1649   95.0055   -2.5851 N.am    1  UNL1       -0.2699
     24 C          57.6779   94.8084   -2.5854 C.3     1  UNL1        0.1208
     25 C          57.2781   94.2980   -3.9380 C.ar    1  UNL1        0.0021
     26 C          55.9453   93.9257   -4.5167 C.ar    1  UNL1       -0.0025
     27 C          55.8524   93.4351   -5.9311 C.ar    1  UNL1       -0.0003
     28 C          57.0923   93.3168   -6.7669 C.ar    1  UNL1        0.0001
     29 C          58.4251   93.6891   -6.1883 C.ar    1  UNL1        0.0043
     30 C          58.5181   94.1797   -4.7738 C.ar    1  UNL1        0.0512
     31 C          59.6841   94.6169   -3.9377 C.2     1  UNL1        0.2492
     32 O          61.1177   94.6583   -4.3770 O.2     1  UNL1       -0.2699
@<TRIPOS>BOND
     1    22    21    1
     2    22     1    1
     3     1     2   ar
     4     2     3   ar
     5     3     4   ar
     6     4     7    1
     7     7     8   am
     8     8     9    2
     9     8    10   am
    10    10    11    1
    11    11    12    1
    12    12    15    1
    13    15    16   ar
    14    16    17   ar
    15    17    18   ar
    16    18    19   ar
    17    19    20   ar
    18    12    13    1
    19     4     5   ar
    20     5     6   ar
    21    22    23    1
    22    23    24    1
    23    24    25    1
    24    25    26   ar
    25    26    27   ar
    26    27    28   ar
    27    28    29   ar
    28    29    30   ar
    29    30    31    1
    30    31    32    2
    31     6     1   ar
    32    31    23   am
    33    13    10    1
    34    30    25   ar
    35    20    15   ar
    36     7    14    1
@<TRIPOS>MOLECULE
*****
 32 36 0 0 0
SMALL
GASTEIGER

@<TRIPOS>ATOM
      1 C          59.4969   95.2208   -1.3032 C.ar    1  UNL1       -0.0042
      2 C          58.9421   93.8292   -1.3796 C.ar    1  UNL1       -0.0014
      3 C          58.8014   93.0084   -0.1321 C.ar    1  UNL1        0.0144
      4 C          59.2153   93.5791    1.1919 C.ar    1  UNL1        0.0516
      5 C          59.7700   94.9706    1.2683 C.ar    1  UNL1        0.0144
      6 C          59.9108   95.7915    0.0208 C.ar    1  UNL1       -0.0014
      7 N          59.0746   92.7582    2.4395 N.am    1  UNL1       -0.2681
      8 C          60.2928   92.1887    3.1040 C.2     1  UNL1        0.3077
      9 O          61.6518   92.4400    2.5209 O.2     1  UNL1       -0.2522
     10 N          60.1519   91.3678    4.3515 N.am    1  UNL1       -0.2632
     11 C          61.1045   90.6574    5.2669 C.3     1  UNL1        0.1010
     12 C          59.9528   90.2069    6.1157 C.3     1  UNL1        0.0636
     13 C          59.0002   90.9172    5.2004 C.3     1  UNL1        0.1010
     14 H          58.1826   92.5932    2.8221 H       1  UNL1        0.1564
     15 C          59.8120   89.3860    7.3633 C.ar    1  UNL1       -0.0000
     16 C          59.3132   87.9739    7.2796 C.ar    1  UNL1       -0.0010
     17 C          59.1724   87.1530    8.5272 C.ar    1  UNL1        0.0204
     18 C          59.5304   87.7443    9.8584 C.ar    1  UNL1        0.0989
     19 N          60.0293   89.1565    9.9421 N.ar    1  UNL1       -0.2426
     20 C          60.1700   89.9773    8.6945 C.ar    1  UNL1        0.0947
     21 C          60.8771   96.8555   -2.7771 C.3     1  UNL1        0.0264
     22 C          59.6376   96.0416   -2.5508 C.3     1  UNL1        0.0985
     23 N          58.5389   96.0486   -3.5719 N.am    1  UNL1       -0.2699
     24 C          57.0852   96.3002   -3.3013 C.3     1  UNL1        0.1208
     25 C          56.3488   96.2122   -4.6051 C.ar    1  UNL1        0.0021
     26 C          54.8980   96.3712   -4.9512 C.ar    1  UNL1       -0.0025
     27 C          54.4459   96.2242   -6.3738 C.ar    1  UNL1       -0.0003
     28 C          55.4446   95.9182   -7.4504 C.ar    1  UNL1        0.0001
     29 C          56.8954   95.7592   -7.1043 C.ar    1  UNL1        0.0043
     30 C          57.3475   95.9062   -5.6817 C.ar    1  UNL1        0.0512
     31 C          58.7010   95.8051   -5.0431 C.2     1  UNL1        0.2492
     32 O          59.9904   95.5119   -5.7515 O.2     1  UNL1       -0.2699
@<TRIPOS>BOND
     1    22    21    1
     2    22     1    1
     3     1     2   ar
     4     2     3   ar
     5     3     4   ar
     6     4     7    1
     7     7     8   am
     8     8     9    2
     9     8    10   am
    10    10    11    1
    11    11    12    1
    12    12    15    1
    13    15    16   ar
    14    16    17   ar
    15    17    18   ar
    16    18    19   ar
    17    19    20   ar
    18    12    13    1
    19     4     5   ar
    20     5     6   ar
    21    22    23    1
    22    23    24    1
    23    24    25    1
    24    25    26   ar
    25    26    27   ar
    26    27    28   ar
    27    28    29   ar
    28    29    30   ar
    29    30    31    1
    30    31    32    2
    31     6     1   ar
    32    31    23   am
    33    13    10    1
    34    30    25   ar
    35    20    15   ar
    36     7    14    1
