@<TRIPOS>MOLECULE
*****
 27 30 0 0 0
SMALL
GASTEIGER

@<TRIPOS>ATOM
      1 C          63.9623   90.3802   12.8399 C.2     1  UNL1        0.0541
      2 C          64.5003   90.0322   14.1962 C.2     1  UNL1        0.0840
      3 N          65.5468   91.0456   14.5536 N.2     1  UNL1       -0.2477
      4 C          65.6556   92.0199   13.4183 C.2     1  UNL1        0.0810
      5 C          66.5198   93.2284   13.2121 C.3     1  UNL1        0.0749
      6 C          66.4048   94.0256   11.9467 C.2     1  UNL1        0.0009
      7 C          65.4255   93.6143   10.8876 C.2     1  UNL1        0.0947
      8 N          64.5612   92.4058   11.0938 N.2     1  UNL1       -0.2429
      9 C          64.6763   91.6086   12.3591 C.2     1  UNL1        0.0980
     10 C          60.7671   88.1331   10.6056 C.ar    1  UNL1        0.1578
     11 C          60.6454   89.6156   10.7993 C.ar    1  UNL1        0.0401
     12 C          61.7105   90.3646   11.5441 C.ar    1  UNL1        0.0224
     13 C          62.8972   89.6312   12.0951 C.ar    1  UNL1        0.0845
     14 N          63.0189   88.1487   11.9014 N.ar    1  UNL1       -0.2406
     15 C          61.9538   87.3997   11.1566 C.ar    1  UNL1        0.1356
     16 C          59.9993   86.8019    8.5107 C.3     1  UNL1        0.2525
     17 O          59.7021   87.3842    9.8608 O.3     1  UNL1       -0.4699
     18 C          64.0677   88.8742   15.0458 C.ar    1  UNL1        0.0221
     19 C          63.2540   89.1142   16.2828 C.ar    1  UNL1        0.0223
     20 C          62.8214   87.9562   17.1325 C.ar    1  UNL1        0.1004
     21 N          63.2025   86.5582   16.7451 N.ar    1  UNL1       -0.2273
     22 C          64.0162   86.3181   15.5081 C.ar    1  UNL1        0.1545
     23 C          64.4488   87.4761   14.6585 C.ar    1  UNL1        0.0377
     24 N          64.3974   84.9200   15.1207 N.am    1  UNL1       -0.1604
     25 C          63.3823   84.0133   14.4902 C.2     1  UNL1        0.2474
     26 C          62.8371   84.3294   13.1290 C.3     1  UNL1        0.0968
     27 O          62.9125   82.7904   15.2209 O.2     1  UNL1       -0.2729
@<TRIPOS>BOND
     1    16    17    1
     2    17    10    1
     3    10    11   ar
     4    11    12   ar
     5    12    13   ar
     6    13     1    1
     7     1     2    2
     8     2    18    1
     9    18    19   ar
    10    19    20   ar
    11    20    21   ar
    12    21    22   ar
    13    22    24    1
    14    24    25   am
    15    25    26    1
    16    25    27    2
    17    22    23   ar
    18     2     3    1
    19     3     4    2
    20     4     5    1
    21     5     6    1
    22     6     7    2
    23     7     8    1
    24     8     9    2
    25    13    14   ar
    26    14    15   ar
    27    15    10   ar
    28     9     1    1
    29    23    18   ar
    30     9     4    1
@<TRIPOS>MOLECULE
*****
 27 30 0 0 0
SMALL
GASTEIGER

@<TRIPOS>ATOM
      1 C          63.9230   90.9034   12.7048 C.2     1  UNL1        0.0541
      2 C          63.2162   90.6675   11.4030 C.2     1  UNL1        0.0840
      3 N          63.7102   91.6838   10.4166 N.2     1  UNL1       -0.2477
      4 C          64.7222   92.5479   11.1087 C.2     1  UNL1        0.0810
      5 C          65.5410   93.7116   10.6340 C.3     1  UNL1        0.0749
      6 C          66.4913   94.3929   11.5734 C.2     1  UNL1        0.0009
      7 C          66.6228   93.9106   12.9877 C.2     1  UNL1        0.0947
      8 N          65.8040   92.7469   13.4624 N.2     1  UNL1       -0.2429
      9 C          64.8537   92.0656   12.5230 C.2     1  UNL1        0.0980
     10 C          63.3513   88.5399   16.4912 C.ar    1  UNL1        0.1578
     11 C          63.9160   87.8758   15.2706 C.ar    1  UNL1        0.0401
     12 C          64.1065   88.6636   14.0084 C.ar    1  UNL1        0.0224
     13 C          63.7324   90.1156   13.9669 C.ar    1  UNL1        0.0845
     14 N          63.1677   90.7798   15.1877 N.ar    1  UNL1       -0.2406
     15 C          62.9772   89.9919   16.4498 C.ar    1  UNL1        0.1356
     16 C          62.5546   86.3811   17.6974 C.3     1  UNL1        0.2525
     17 O          63.1608   87.7520   17.7534 O.3     1  UNL1       -0.4699
     18 C          62.1948   89.6023   11.1347 C.ar    1  UNL1        0.0221
     19 C          60.7340   89.9427   11.1510 C.ar    1  UNL1        0.0223
     20 C          59.7126   88.8774   10.8827 C.ar    1  UNL1        0.1004
     21 N          60.1520   87.4718   10.5980 N.ar    1  UNL1       -0.2273
     22 C          61.6127   87.1314   10.5817 C.ar    1  UNL1        0.1545
     23 C          62.6341   88.1966   10.8500 C.ar    1  UNL1        0.0377
     24 N          62.0521   85.7256   10.2971 N.am    1  UNL1       -0.1604
     25 C          62.6065   84.8750   11.4012 C.2     1  UNL1        0.2474
     26 C          63.4153   83.6549   11.0741 C.3     1  UNL1        0.0968
     27 O          62.3520   85.2446   12.8326 O.2     1  UNL1       -0.2729
@<TRIPOS>BOND
     1    16    17    1
     2    17    10    1
     3    10    11   ar
     4    11    12   ar
     5    12    13   ar
     6    13     1    1
     7     1     2    2
     8     2    18    1
     9    18    19   ar
    10    19    20   ar
    11    20    21   ar
    12    21    22   ar
    13    22    24    1
    14    24    25   am
    15    25    26    1
    16    25    27    2
    17    22    23   ar
    18     2     3    1
    19     3     4    2
    20     4     5    1
    21     5     6    1
    22     6     7    2
    23     7     8    1
    24     8     9    2
    25    13    14   ar
    26    14    15   ar
    27    15    10   ar
    28     9     1    1
    29    23    18   ar
    30     9     4    1
@<TRIPOS>MOLECULE
*****
 27 30 0 0 0
SMALL
GASTEIGER

@<TRIPOS>ATOM
      1 C          62.7486   86.1162   12.2699 C.2     1  UNL1        0.0541
      2 C          63.5179   87.0442   13.1625 C.2     1  UNL1        0.0840
      3 N          64.1984   86.2183   14.2136 N.2     1  UNL1       -0.2477
      4 C          63.8495   84.7798   13.9707 C.2     1  UNL1        0.0810
      5 C          64.2320   83.5192   14.6880 C.3     1  UNL1        0.0749
      6 C          63.7184   82.1956   14.2041 C.2     1  UNL1        0.0009
      7 C          62.8223   82.1325   13.0028 C.2     1  UNL1        0.0947
      8 N          62.4399   83.3931   12.2854 N.2     1  UNL1       -0.2429
      9 C          62.9534   84.7167   12.7694 C.2     1  UNL1        0.0980
     10 C          60.2620   87.3193    8.7175 C.ar    1  UNL1        0.1578
     11 C          61.4829   86.4694    8.5251 C.ar    1  UNL1        0.0401
     12 C          62.3117   86.0683    9.7093 C.ar    1  UNL1        0.0224
     13 C          61.9197   86.5172   11.0858 C.ar    1  UNL1        0.0845
     14 N          60.6988   87.3672   11.2781 N.ar    1  UNL1       -0.2406
     15 C          59.8700   87.7683   10.0939 C.ar    1  UNL1        0.1356
     16 C          59.4092   89.1515    7.0848 C.3     1  UNL1        0.2525
     17 O          59.4332   87.7204    7.5333 O.3     1  UNL1       -0.4699
     18 C          63.5936   88.5362   13.0277 C.ar    1  UNL1        0.0221
     19 C          63.0528   89.2067   11.7998 C.ar    1  UNL1        0.0223
     20 C          63.1284   90.6988   11.6650 C.ar    1  UNL1        0.1004
     21 N          63.7450   91.5203   12.7581 N.ar    1  UNL1       -0.2273
     22 C          64.2859   90.8498   13.9860 C.ar    1  UNL1        0.1545
     23 C          64.2102   89.3577   14.1208 C.ar    1  UNL1        0.0377
     24 N          64.9025   91.6713   15.0792 N.am    1  UNL1       -0.1604
     25 C          66.1788   92.4179   14.8273 C.2     1  UNL1        0.2474
     26 C          67.4974   91.7788   15.1480 C.3     1  UNL1        0.0968
     27 O          66.1366   93.8037   14.2548 O.2     1  UNL1       -0.2729
@<TRIPOS>BOND
     1    16    17    1
     2    17    10    1
     3    10    11   ar
     4    11    12   ar
     5    12    13   ar
     6    13     1    1
     7     1     2    2
     8     2    18    1
     9    18    19   ar
    10    19    20   ar
    11    20    21   ar
    12    21    22   ar
    13    22    24    1
    14    24    25   am
    15    25    26    1
    16    25    27    2
    17    22    23   ar
    18     2     3    1
    19     3     4    2
    20     4     5    1
    21     5     6    1
    22     6     7    2
    23     7     8    1
    24     8     9    2
    25    13    14   ar
    26    14    15   ar
    27    15    10   ar
    28     9     1    1
    29    23    18   ar
    30     9     4    1
@<TRIPOS>MOLECULE
*****
 27 30 0 0 0
SMALL
GASTEIGER

@<TRIPOS>ATOM
      1 C          63.8844   90.7098   12.6634 C.2     1  UNL1        0.0541
      2 C          63.1066   90.5632   11.3893 C.2     1  UNL1        0.0840
      3 N          63.5811   91.6167   10.4328 N.2     1  UNL1       -0.2477
      4 C          64.6522   92.4145   11.1158 C.2     1  UNL1        0.0810
      5 C          65.4809   93.5788   10.6605 C.3     1  UNL1        0.0749
      6 C          66.4971   94.1827   11.5839 C.2     1  UNL1        0.0009
      7 C          66.6846   93.6221   12.9625 C.2     1  UNL1        0.0947
      8 N          65.8558   92.4578   13.4178 N.2     1  UNL1       -0.2429
      9 C          64.8396   91.8539   12.4945 C.2     1  UNL1        0.0980
     10 C          63.4317   88.1641   16.3465 C.ar    1  UNL1        0.1578
     11 C          63.1445   89.6349   16.4114 C.ar    1  UNL1        0.0401
     12 C          63.2954   90.4834   15.1837 C.ar    1  UNL1        0.0224
     13 C          63.7335   89.8613   13.8911 C.ar    1  UNL1        0.0845
     14 N          64.0207   88.3904   13.8262 N.ar    1  UNL1       -0.2406
     15 C          63.8698   87.5418   15.0539 C.ar    1  UNL1        0.1356
     16 C          62.3929   86.1069   17.5460 C.3     1  UNL1        0.2525
     17 O          63.2808   87.3155   17.5742 O.3     1  UNL1       -0.4699
     18 C          62.0414   89.5423   11.1190 C.ar    1  UNL1        0.0221
     19 C          60.6707   89.7160   11.7029 C.ar    1  UNL1        0.0223
     20 C          59.6054   88.6951   11.4326 C.ar    1  UNL1        0.1004
     21 N          59.9109   87.5005   10.5785 N.ar    1  UNL1       -0.2273
     22 C          61.2816   87.3268    9.9947 C.ar    1  UNL1        0.1545
     23 C          62.3468   88.3477   10.2649 C.ar    1  UNL1        0.0377
     24 N          61.5871   86.1321    9.1405 N.am    1  UNL1       -0.1604
     25 C          60.9175   85.9720    7.8079 C.2     1  UNL1        0.2474
     26 C          59.5981   86.6359    7.5469 C.3     1  UNL1        0.0968
     27 O          61.5675   85.1478    6.7361 O.2     1  UNL1       -0.2729
@<TRIPOS>BOND
     1    16    17    1
     2    17    10    1
     3    10    11   ar
     4    11    12   ar
     5    12    13   ar
     6    13     1    1
     7     1     2    2
     8     2    18    1
     9    18    19   ar
    10    19    20   ar
    11    20    21   ar
    12    21    22   ar
    13    22    24    1
    14    24    25   am
    15    25    26    1
    16    25    27    2
    17    22    23   ar
    18     2     3    1
    19     3     4    2
    20     4     5    1
    21     5     6    1
    22     6     7    2
    23     7     8    1
    24     8     9    2
    25    13    14   ar
    26    14    15   ar
    27    15    10   ar
    28     9     1    1
    29    23    18   ar
    30     9     4    1
@<TRIPOS>MOLECULE
*****
 27 30 0 0 0
SMALL
GASTEIGER

@<TRIPOS>ATOM
      1 C          61.8652   87.1030   10.6380 C.2     1  UNL1        0.0541
      2 C          62.1732   88.4984   11.0942 C.2     1  UNL1        0.0840
      3 N          61.4138   89.4505   10.2185 N.2     1  UNL1       -0.2477
      4 C          60.6365   88.6436    9.2211 C.2     1  UNL1        0.0810
      5 C          59.7108   89.0426    8.1104 C.3     1  UNL1        0.0749
      6 C          59.0640   87.9906    7.2589 C.2     1  UNL1        0.0009
      7 C          59.3429   86.5398    7.5182 C.2     1  UNL1        0.0947
      8 N          60.2687   86.1409    8.6289 N.2     1  UNL1       -0.2429
      9 C          60.9155   87.1928    9.4804 C.2     1  UNL1        0.0980
     10 C          63.5027   83.3130   12.4281 C.ar    1  UNL1        0.1578
     11 C          63.7482   83.6266   10.9819 C.ar    1  UNL1        0.0401
     12 C          63.2024   84.8899   10.3853 C.ar    1  UNL1        0.0224
     13 C          62.4110   85.8397   11.2347 C.ar    1  UNL1        0.0845
     14 N          62.1655   85.5261   12.6809 N.ar    1  UNL1       -0.2406
     15 C          62.7113   84.2627   13.2776 C.ar    1  UNL1        0.1356
     16 C          63.1142   80.9547   13.4468 C.3     1  UNL1        0.2525
     17 O          64.0486   82.0496   13.0247 O.3     1  UNL1       -0.4699
     18 C          63.0811   88.8754   12.2271 C.ar    1  UNL1        0.0221
     19 C          63.5150   87.8364   13.2182 C.ar    1  UNL1        0.0223
     20 C          64.4229   88.2135   14.3511 C.ar    1  UNL1        0.1004
     21 N          64.8970   89.6294   14.4930 N.ar    1  UNL1       -0.2273
     22 C          64.4632   90.6684   13.5019 C.ar    1  UNL1        0.1545
     23 C          63.5552   90.2914   12.3690 C.ar    1  UNL1        0.0377
     24 N          64.9373   92.0845   13.6437 N.am    1  UNL1       -0.1604
     25 C          65.9910   92.6187   12.7195 C.2     1  UNL1        0.2474
     26 C          65.5950   93.2761   11.4307 C.3     1  UNL1        0.0968
     27 O          67.4409   92.4955   13.0841 O.2     1  UNL1       -0.2729
@<TRIPOS>BOND
     1    16    17    1
     2    17    10    1
     3    10    11   ar
     4    11    12   ar
     5    12    13   ar
     6    13     1    1
     7     1     2    2
     8     2    18    1
     9    18    19   ar
    10    19    20   ar
    11    20    21   ar
    12    21    22   ar
    13    22    24    1
    14    24    25   am
    15    25    26    1
    16    25    27    2
    17    22    23   ar
    18     2     3    1
    19     3     4    2
    20     4     5    1
    21     5     6    1
    22     6     7    2
    23     7     8    1
    24     8     9    2
    25    13    14   ar
    26    14    15   ar
    27    15    10   ar
    28     9     1    1
    29    23    18   ar
    30     9     4    1
@<TRIPOS>MOLECULE
*****
 27 30 0 0 0
SMALL
GASTEIGER

@<TRIPOS>ATOM
      1 C          64.1866   90.2713   13.6233 C.2     1  UNL1        0.0541
      2 C          63.4535   90.6077   12.3586 C.2     1  UNL1        0.0840
      3 N          64.0220   91.8870   11.8197 N.2     1  UNL1       -0.2477
      4 C          65.1063   92.3411   12.7513 C.2     1  UNL1        0.0810
      5 C          66.0142   93.5349   12.7287 C.3     1  UNL1        0.0749
      6 C          67.0238   93.7301   13.8207 C.2     1  UNL1        0.0009
      7 C          67.1255   92.7316   14.9354 C.2     1  UNL1        0.0947
      8 N          66.2176   91.5378   14.9581 N.2     1  UNL1       -0.2429
      9 C          65.2080   91.3426   13.8660 C.2     1  UNL1        0.0980
     10 C          63.4504   86.6788   16.2314 C.ar    1  UNL1        0.1578
     11 C          64.0793   86.5085   14.8804 C.ar    1  UNL1        0.0401
     12 C          64.3247   87.7060   14.0110 C.ar    1  UNL1        0.0224
     13 C          63.9412   89.0738   14.4926 C.ar    1  UNL1        0.0845
     14 N          63.3122   89.2441   15.8438 N.ar    1  UNL1       -0.2406
     15 C          63.0668   88.0466   16.7132 C.ar    1  UNL1        0.1356
     16 C          62.7988   84.1763   16.4827 C.3     1  UNL1        0.2525
     17 O          63.2050   85.4813   17.1008 O.3     1  UNL1       -0.4699
     18 C          62.3464   89.8058   11.7412 C.ar    1  UNL1        0.0221
     19 C          60.9194   90.0960   12.1008 C.ar    1  UNL1        0.0223
     20 C          59.8124   89.2940   11.4834 C.ar    1  UNL1        0.1004
     21 N          60.1323   88.2018   10.5063 N.ar    1  UNL1       -0.2273
     22 C          61.5593   87.9116   10.1467 C.ar    1  UNL1        0.1545
     23 C          62.6663   88.7136   10.7641 C.ar    1  UNL1        0.0377
     24 N          61.8792   86.8193    9.1696 N.am    1  UNL1       -0.1604
     25 C          62.5050   85.5434    9.6495 C.2     1  UNL1        0.2474
     26 C          62.3325   85.1136   11.0762 C.3     1  UNL1        0.0968
     27 O          63.3035   84.6971    8.7026 O.2     1  UNL1       -0.2729
@<TRIPOS>BOND
     1    16    17    1
     2    17    10    1
     3    10    11   ar
     4    11    12   ar
     5    12    13   ar
     6    13     1    1
     7     1     2    2
     8     2    18    1
     9    18    19   ar
    10    19    20   ar
    11    20    21   ar
    12    21    22   ar
    13    22    24    1
    14    24    25   am
    15    25    26    1
    16    25    27    2
    17    22    23   ar
    18     2     3    1
    19     3     4    2
    20     4     5    1
    21     5     6    1
    22     6     7    2
    23     7     8    1
    24     8     9    2
    25    13    14   ar
    26    14    15   ar
    27    15    10   ar
    28     9     1    1
    29    23    18   ar
    30     9     4    1
@<TRIPOS>MOLECULE
*****
 27 30 0 0 0
SMALL
GASTEIGER

@<TRIPOS>ATOM
      1 C          61.8248   86.9815   10.5571 C.2     1  UNL1        0.0541
      2 C          62.1397   88.3308   11.1320 C.2     1  UNL1        0.0840
      3 N          61.4067   89.3609   10.3249 N.2     1  UNL1       -0.2477
      4 C          60.6389   88.6484    9.2512 C.2     1  UNL1        0.0810
      5 C          59.7378   89.1487    8.1614 C.3     1  UNL1        0.0749
      6 C          59.0951   88.1784    7.2152 C.2     1  UNL1        0.0009
      7 C          59.3535   86.7078    7.3587 C.2     1  UNL1        0.0947
      8 N          60.2546   86.2075    8.4485 N.2     1  UNL1       -0.2429
      9 C          60.8973   87.1778    9.3948 C.2     1  UNL1        0.0980
     10 C          63.3884   83.0372   12.0566 C.ar    1  UNL1        0.1578
     11 C          63.6991   83.4848   10.6590 C.ar    1  UNL1        0.0401
     12 C          63.1779   84.7996   10.1593 C.ar    1  UNL1        0.0224
     13 C          62.3460   85.6668   11.0569 C.ar    1  UNL1        0.0845
     14 N          62.0353   85.2192   12.4545 N.ar    1  UNL1       -0.2406
     15 C          62.5565   83.9044   12.9543 C.ar    1  UNL1        0.1356
     16 C          62.9719   80.7329   13.1821 C.3     1  UNL1        0.2525
     17 O          63.9095   81.7225   12.5563 O.3     1  UNL1       -0.4699
     18 C          63.0310   88.6021   12.3075 C.ar    1  UNL1        0.0221
     19 C          63.4672   90.0051   12.6099 C.ar    1  UNL1        0.0223
     20 C          64.3585   90.2764   13.7854 C.ar    1  UNL1        0.1004
     21 N          64.8136   89.1449   14.6586 N.ar    1  UNL1       -0.2273
     22 C          64.3774   87.7420   14.3562 C.ar    1  UNL1        0.1545
     23 C          63.4861   87.4706   13.1807 C.ar    1  UNL1        0.0377
     24 N          64.8325   86.6104   15.2294 N.am    1  UNL1       -0.1604
     25 C          63.8354   85.8513   16.0538 C.2     1  UNL1        0.2474
     26 C          63.0197   86.5661   17.0900 C.3     1  UNL1        0.0968
     27 O          63.6539   84.3774   15.8419 O.2     1  UNL1       -0.2729
@<TRIPOS>BOND
     1    16    17    1
     2    17    10    1
     3    10    11   ar
     4    11    12   ar
     5    12    13   ar
     6    13     1    1
     7     1     2    2
     8     2    18    1
     9    18    19   ar
    10    19    20   ar
    11    20    21   ar
    12    21    22   ar
    13    22    24    1
    14    24    25   am
    15    25    26    1
    16    25    27    2
    17    22    23   ar
    18     2     3    1
    19     3     4    2
    20     4     5    1
    21     5     6    1
    22     6     7    2
    23     7     8    1
    24     8     9    2
    25    13    14   ar
    26    14    15   ar
    27    15    10   ar
    28     9     1    1
    29    23    18   ar
    30     9     4    1
@<TRIPOS>MOLECULE
*****
 27 30 0 0 0
SMALL
GASTEIGER

@<TRIPOS>ATOM
      1 C          61.9972   88.0055   11.0487 C.2     1  UNL1        0.0541
      2 C          62.1832   89.4765   11.2759 C.2     1  UNL1        0.0840
      3 N          61.4153   90.2099   10.2165 N.2     1  UNL1       -0.2477
      4 C          60.7546   89.1922    9.3345 C.2     1  UNL1        0.0810
      5 C          59.8721   89.3301    8.1296 C.3     1  UNL1        0.0749
      6 C          59.3491   88.1056    7.4389 C.2     1  UNL1        0.0009
      7 C          59.7088   86.7432    7.9533 C.2     1  UNL1        0.0947
      8 N          60.5913   86.6053    9.1582 N.2     1  UNL1       -0.2429
      9 C          61.1143   87.8298    9.8489 C.2     1  UNL1        0.0980
     10 C          63.7757   84.7000   13.5308 C.ar    1  UNL1        0.1578
     11 C          62.8577   84.3713   12.3910 C.ar    1  UNL1        0.0401
     12 C          62.2649   85.4731   11.5636 C.ar    1  UNL1        0.0224
     13 C          62.5900   86.9037   11.8760 C.ar    1  UNL1        0.0845
     14 N          63.5081   87.2324   13.0159 N.ar    1  UNL1       -0.2406
     15 C          64.1009   86.1306   13.8433 C.ar    1  UNL1        0.1356
     16 C          63.8826   82.1890   14.1894 C.3     1  UNL1        0.2525
     17 O          64.3685   83.5981   14.3581 O.3     1  UNL1       -0.4699
     18 C          62.9948   90.1039   12.3704 C.ar    1  UNL1        0.0221
     19 C          62.7098   89.7653   13.8036 C.ar    1  UNL1        0.0223
     20 C          63.5214   90.3927   14.8981 C.ar    1  UNL1        0.1004
     21 N          64.6178   91.3587   14.5593 N.ar    1  UNL1       -0.2273
     22 C          64.9027   91.6972   13.1261 C.ar    1  UNL1        0.1545
     23 C          64.0912   91.0698   12.0316 C.ar    1  UNL1        0.0377
     24 N          65.9991   92.6632   12.7873 N.am    1  UNL1       -0.1604
     25 C          67.2437   92.7084   13.6233 C.2     1  UNL1        0.2474
     26 C          67.2560   93.4811   14.9088 C.3     1  UNL1        0.0968
     27 O          68.4760   91.9808   13.1737 O.2     1  UNL1       -0.2729
@<TRIPOS>BOND
     1    16    17    1
     2    17    10    1
     3    10    11   ar
     4    11    12   ar
     5    12    13   ar
     6    13     1    1
     7     1     2    2
     8     2    18    1
     9    18    19   ar
    10    19    20   ar
    11    20    21   ar
    12    21    22   ar
    13    22    24    1
    14    24    25   am
    15    25    26    1
    16    25    27    2
    17    22    23   ar
    18     2     3    1
    19     3     4    2
    20     4     5    1
    21     5     6    1
    22     6     7    2
    23     7     8    1
    24     8     9    2
    25    13    14   ar
    26    14    15   ar
    27    15    10   ar
    28     9     1    1
    29    23    18   ar
    30     9     4    1
@<TRIPOS>MOLECULE
*****
 27 30 0 0 0
SMALL
GASTEIGER

@<TRIPOS>ATOM
      1 C          61.7940   87.5810   10.3121 C.2     1  UNL1        0.0541
      2 C          62.0308   89.0319   10.6098 C.2     1  UNL1        0.0840
      3 N          61.1679   89.8411    9.6875 N.2     1  UNL1       -0.2477
      4 C          60.3979   88.8903    8.8197 C.2     1  UNL1        0.0810
      5 C          59.3944   89.1160    7.7280 C.3     1  UNL1        0.0749
      6 C          58.7778   87.9448    7.0222 C.2     1  UNL1        0.0009
      7 C          59.1648   86.5479    7.4082 C.2     1  UNL1        0.0947
      8 N          60.1683   86.3222    8.5000 N.2     1  UNL1       -0.2429
      9 C          60.7849   87.4934    9.2057 C.2     1  UNL1        0.0980
     10 C          63.7652   84.1015   12.3755 C.ar    1  UNL1        0.1578
     11 C          63.5088   84.0503   10.8985 C.ar    1  UNL1        0.0401
     12 C          62.8518   85.2101   10.2107 C.ar    1  UNL1        0.0224
     13 C          62.4511   86.4211   10.9998 C.ar    1  UNL1        0.0845
     14 N          62.7075   86.4723   12.4770 N.ar    1  UNL1       -0.2406
     15 C          63.3646   85.3125   13.1648 C.ar    1  UNL1        0.1356
     16 C          63.5882   81.9366   13.8010 C.3     1  UNL1        0.2525
     17 O          64.4223   82.9416   13.0633 O.3     1  UNL1       -0.4699
     18 C          62.9662   89.5778   11.6476 C.ar    1  UNL1        0.0221
     19 C          63.7152   90.8510   11.3869 C.ar    1  UNL1        0.0223
     20 C          64.6506   91.3969   12.4247 C.ar    1  UNL1        0.1004
     21 N          64.8369   90.6696   13.7233 N.ar    1  UNL1       -0.2273
     22 C          64.0879   89.3965   13.9840 C.ar    1  UNL1        0.1545
     23 C          63.1525   88.8506   12.9462 C.ar    1  UNL1        0.0377
     24 N          64.2742   88.6692   15.2827 N.am    1  UNL1       -0.1604
     25 C          63.4059   89.0016   16.4597 C.2     1  UNL1        0.2474
     26 C          62.8602   87.9031   17.3231 C.3     1  UNL1        0.0968
     27 O          63.0834   90.4326   16.7734 O.2     1  UNL1       -0.2729
@<TRIPOS>BOND
     1    16    17    1
     2    17    10    1
     3    10    11   ar
     4    11    12   ar
     5    12    13   ar
     6    13     1    1
     7     1     2    2
     8     2    18    1
     9    18    19   ar
    10    19    20   ar
    11    20    21   ar
    12    21    22   ar
    13    22    24    1
    14    24    25   am
    15    25    26    1
    16    25    27    2
    17    22    23   ar
    18     2     3    1
    19     3     4    2
    20     4     5    1
    21     5     6    1
    22     6     7    2
    23     7     8    1
    24     8     9    2
    25    13    14   ar
    26    14    15   ar
    27    15    10   ar
    28     9     1    1
    29    23    18   ar
    30     9     4    1
