@<TRIPOS>MOLECULE
*****
 27 31 0 0 0
SMALL
GASTEIGER

@<TRIPOS>ATOM
      1 O          63.5042   89.3165   12.7515 O.2     1  UNL1       -0.2638
      2 C          62.6701   88.6974   11.6693 C.2     1  UNL1        0.3160
      3 N          62.0256   89.5656   10.6297 N.am    1  UNL1       -0.1720
      4 C          61.1915   88.9465    9.5475 C.ar    1  UNL1        0.0775
      5 C          60.5469   89.8147    8.5080 C.ar    1  UNL1        0.0168
      6 C          59.7129   89.1955    7.4259 C.ar    1  UNL1        0.0028
      7 C          59.5234   87.7082    7.3833 C.ar    1  UNL1        0.0003
      8 C          60.1679   86.8400    8.4229 C.ar    1  UNL1        0.0051
      9 C          61.0020   87.4591    9.5050 C.ar    1  UNL1        0.0623
     10 C          61.6465   86.5909   10.5446 C.2     1  UNL1        0.2419
     11 N          61.6386   85.1061   10.7576 N.2     1  UNL1       -0.0302
     12 C          62.4678   84.8076   11.9715 C.2     1  UNL1        0.3765
     13 N          62.9881   86.1079   12.5086 N.2     1  UNL1       -0.0256
     14 C          62.4806   87.2100   11.6267 C.2     1  UNL1        0.2907
     15 C          62.7305   83.4475   12.5471 C.ar    1  UNL1        0.0989
     16 C          62.0947   83.0470   13.8453 C.ar    1  UNL1        0.0085
     17 C          62.3574   81.6870   14.4208 C.ar    1  UNL1        0.0003
     18 C          63.2560   80.7275   13.6982 C.ar    1  UNL1        0.0009
     19 C          63.8918   81.1281   12.4001 C.ar    1  UNL1        0.0116
     20 C          63.6290   82.4881   11.8245 C.ar    1  UNL1        0.0651
     21 CL         64.2649   82.8887   10.5263 Cl      1  UNL1       -0.0820
     22 C          59.0683   90.0638    6.3862 C.ar    1  UNL1        0.0192
     23 C          59.9172   90.9114    5.4857 C.ar    1  UNL1        0.0031
     24 C          59.2727   91.7796    4.4461 C.ar    1  UNL1        0.0207
     25 C          57.7793   91.8002    4.3070 C.ar    1  UNL1        0.0989
     26 N          56.9304   90.9526    5.2076 N.ar    1  UNL1       -0.2423
     27 C          57.5750   90.0844    6.2472 C.ar    1  UNL1        0.0988
@<TRIPOS>BOND
     1     1     2    2
     2     2     3    1
     3     3     4    2
     4     4     5   ar
     5     5     6   ar
     6     6    22    1
     7    22    23   ar
     8    23    24   ar
     9    24    25   ar
    10    25    26   ar
    11    26    27   ar
    12     6     7   ar
    13     7     8   ar
    14     8     9   ar
    15     9    10    2
    16    10    11    1
    17    11    12    2
    18    12    15    1
    19    15    16   ar
    20    16    17   ar
    21    17    18   ar
    22    18    19   ar
    23    19    20   ar
    24    20    21    1
    25    12    13    1
    26    13    14    2
    27    14     2    1
    28     9     4   ar
    29    14    10    1
    30    27    22   ar
    31    20    15   ar
@<TRIPOS>MOLECULE
*****
 27 31 0 0 0
SMALL
GASTEIGER

@<TRIPOS>ATOM
      1 O          61.3020   88.8499    9.8865 O.2     1  UNL1       -0.2638
      2 C          61.9764   87.8305   10.7560 C.2     1  UNL1        0.3160
      3 N          61.8384   86.3698   10.4443 N.am    1  UNL1       -0.1720
      4 C          62.5128   85.3503   11.3139 C.ar    1  UNL1        0.0775
      5 C          62.3748   83.8896   11.0022 C.ar    1  UNL1        0.0168
      6 C          63.0491   82.8702   11.8717 C.ar    1  UNL1        0.0028
      7 C          63.8615   83.3116   13.0529 C.ar    1  UNL1        0.0003
      8 C          63.9995   84.7723   13.3646 C.ar    1  UNL1        0.0051
      9 C          63.3252   85.7917   12.4951 C.ar    1  UNL1        0.0623
     10 C          63.4632   87.2525   12.8067 C.2     1  UNL1        0.2419
     11 N          64.1934   87.9819   13.8951 N.2     1  UNL1       -0.0302
     12 C          63.9704   89.4521   13.6983 C.2     1  UNL1        0.3765
     13 N          63.1023   89.6313   12.4882 N.2     1  UNL1       -0.0256
     14 C          62.7888   88.2718   11.9372 C.2     1  UNL1        0.2907
     15 C          64.5191   90.5503   14.5603 C.ar    1  UNL1        0.0989
     16 C          65.6140   91.4347   14.0416 C.ar    1  UNL1        0.0085
     17 C          66.1627   92.5328   14.9036 C.ar    1  UNL1        0.0003
     18 C          65.6165   92.7466   16.2842 C.ar    1  UNL1        0.0009
     19 C          64.5216   91.8622   16.8028 C.ar    1  UNL1        0.0116
     20 C          63.9729   90.7640   15.9408 C.ar    1  UNL1        0.0651
     21 CL         62.8780   89.8796   16.4595 Cl      1  UNL1       -0.0820
     22 C          62.9111   81.4094   11.5600 C.ar    1  UNL1        0.0192
     23 C          63.0496   80.9279   10.1462 C.ar    1  UNL1        0.0031
     24 C          62.9116   79.4671    9.8345 C.ar    1  UNL1        0.0207
     25 C          62.6352   78.4879   10.9367 C.ar    1  UNL1        0.0989
     26 N          62.4967   78.9694   12.3505 N.ar    1  UNL1       -0.2423
     27 C          62.6347   80.4303   12.6622 C.ar    1  UNL1        0.0988
@<TRIPOS>BOND
     1     1     2    2
     2     2     3    1
     3     3     4    2
     4     4     5   ar
     5     5     6   ar
     6     6    22    1
     7    22    23   ar
     8    23    24   ar
     9    24    25   ar
    10    25    26   ar
    11    26    27   ar
    12     6     7   ar
    13     7     8   ar
    14     8     9   ar
    15     9    10    2
    16    10    11    1
    17    11    12    2
    18    12    15    1
    19    15    16   ar
    20    16    17   ar
    21    17    18   ar
    22    18    19   ar
    23    19    20   ar
    24    20    21    1
    25    12    13    1
    26    13    14    2
    27    14     2    1
    28     9     4   ar
    29    14    10    1
    30    27    22   ar
    31    20    15   ar
@<TRIPOS>MOLECULE
*****
 27 31 0 0 0
SMALL
GASTEIGER

@<TRIPOS>ATOM
      1 O          61.2198   89.5102   10.2173 O.2     1  UNL1       -0.2638
      2 C          61.9587   88.6047   11.1576 C.2     1  UNL1        0.3160
      3 N          61.6525   87.1365   11.1808 N.am    1  UNL1       -0.1720
      4 C          62.3914   86.2310   12.1212 C.ar    1  UNL1        0.0775
      5 C          62.0852   84.7628   12.1444 C.ar    1  UNL1        0.0168
      6 C          62.8242   83.8574   13.0847 C.ar    1  UNL1        0.0028
      7 C          63.8693   84.4202   14.0017 C.ar    1  UNL1        0.0003
      8 C          64.1755   85.8884   13.9785 C.ar    1  UNL1        0.0051
      9 C          63.4366   86.7938   13.0382 C.ar    1  UNL1        0.0623
     10 C          63.7428   88.2621   13.0150 C.2     1  UNL1        0.2419
     11 N          64.7131   89.0975   13.7963 N.2     1  UNL1       -0.0302
     12 C          64.5739   90.5192   13.3389 C.2     1  UNL1        0.3765
     13 N          63.5175   90.5625   12.2749 N.2     1  UNL1       -0.0256
     14 C          63.0038   89.1675   12.0747 C.2     1  UNL1        0.2907
     15 C          65.3541   91.6919   13.8550 C.ar    1  UNL1        0.0989
     16 C          65.7227   91.7670   15.3070 C.ar    1  UNL1        0.0085
     17 C          66.5028   92.9396   15.8231 C.ar    1  UNL1        0.0003
     18 C          66.9144   94.0370   14.8870 C.ar    1  UNL1        0.0009
     19 C          66.5459   93.9619   13.4350 C.ar    1  UNL1        0.0116
     20 C          65.7657   92.7893   12.9190 C.ar    1  UNL1        0.0651
     21 CL         65.3971   92.7142   11.4669 Cl      1  UNL1       -0.0820
     22 C          62.5180   82.3891   13.1079 C.ar    1  UNL1        0.0192
     23 C          61.6484   81.8214   14.1903 C.ar    1  UNL1        0.0031
     24 C          61.3422   80.3532   14.2136 C.ar    1  UNL1        0.0207
     25 C          61.9056   79.4527   13.1545 C.ar    1  UNL1        0.0989
     26 N          62.7752   80.0204   12.0722 N.ar    1  UNL1       -0.2423
     27 C          63.0814   81.4887   12.0489 C.ar    1  UNL1        0.0988
@<TRIPOS>BOND
     1     1     2    2
     2     2     3    1
     3     3     4    2
     4     4     5   ar
     5     5     6   ar
     6     6    22    1
     7    22    23   ar
     8    23    24   ar
     9    24    25   ar
    10    25    26   ar
    11    26    27   ar
    12     6     7   ar
    13     7     8   ar
    14     8     9   ar
    15     9    10    2
    16    10    11    1
    17    11    12    2
    18    12    15    1
    19    15    16   ar
    20    16    17   ar
    21    17    18   ar
    22    18    19   ar
    23    19    20   ar
    24    20    21    1
    25    12    13    1
    26    13    14    2
    27    14     2    1
    28     9     4   ar
    29    14    10    1
    30    27    22   ar
    31    20    15   ar
@<TRIPOS>MOLECULE
*****
 27 31 0 0 0
SMALL
GASTEIGER

@<TRIPOS>ATOM
      1 O          61.2738   86.8527    9.1003 O.2     1  UNL1       -0.2638
      2 C          62.0239   86.7986   10.3983 C.2     1  UNL1        0.3160
      3 N          62.4149   88.0698   11.0920 N.am    1  UNL1       -0.1720
      4 C          63.1650   88.0157   12.3899 C.ar    1  UNL1        0.0775
      5 C          63.5560   89.2869   13.0836 C.ar    1  UNL1        0.0168
      6 C          64.3060   89.2328   14.3815 C.ar    1  UNL1        0.0028
      7 C          64.6650   87.9076   14.9856 C.ar    1  UNL1        0.0003
      8 C          64.2740   86.6365   14.2919 C.ar    1  UNL1        0.0051
      9 C          63.5240   86.6906   12.9940 C.ar    1  UNL1        0.0623
     10 C          63.1329   85.4194   12.3003 C.2     1  UNL1        0.2419
     11 N          63.3471   83.9771   12.6522 N.2     1  UNL1       -0.0302
     12 C          62.7295   83.1397   11.5717 C.2     1  UNL1        0.3765
     13 N          62.1335   84.0645   10.5521 N.2     1  UNL1       -0.0256
     14 C          62.3829   85.4735   11.0024 C.2     1  UNL1        0.2907
     15 C          62.7110   81.6407   11.5200 C.ar    1  UNL1        0.0989
     16 C          62.9935   80.9312   10.2290 C.ar    1  UNL1        0.0085
     17 C          62.9750   79.4323   10.1773 C.ar    1  UNL1        0.0003
     18 C          62.6740   78.6428   11.4167 C.ar    1  UNL1        0.0009
     19 C          62.3915   79.3522   12.7077 C.ar    1  UNL1        0.0116
     20 C          62.4100   80.8512   12.7594 C.ar    1  UNL1        0.0651
     21 CL         62.1275   81.5607   14.0505 Cl      1  UNL1       -0.0820
     22 C          64.6971   90.5040   15.0753 C.ar    1  UNL1        0.0192
     23 C          65.9495   91.2240   14.6716 C.ar    1  UNL1        0.0031
     24 C          66.3406   92.4951   15.3653 C.ar    1  UNL1        0.0207
     25 C          65.4792   93.0463   16.4628 C.ar    1  UNL1        0.0989
     26 N          64.2268   92.3262   16.8665 N.ar    1  UNL1       -0.2423
     27 C          63.8357   91.0551   16.1727 C.ar    1  UNL1        0.0988
@<TRIPOS>BOND
     1     1     2    2
     2     2     3    1
     3     3     4    2
     4     4     5   ar
     5     5     6   ar
     6     6    22    1
     7    22    23   ar
     8    23    24   ar
     9    24    25   ar
    10    25    26   ar
    11    26    27   ar
    12     6     7   ar
    13     7     8   ar
    14     8     9   ar
    15     9    10    2
    16    10    11    1
    17    11    12    2
    18    12    15    1
    19    15    16   ar
    20    16    17   ar
    21    17    18   ar
    22    18    19   ar
    23    19    20   ar
    24    20    21    1
    25    12    13    1
    26    13    14    2
    27    14     2    1
    28     9     4   ar
    29    14    10    1
    30    27    22   ar
    31    20    15   ar
@<TRIPOS>MOLECULE
*****
 27 31 0 0 0
SMALL
GASTEIGER

@<TRIPOS>ATOM
      1 O          60.8848   87.2505    9.5919 O.2     1  UNL1       -0.2638
      2 C          61.8261   87.3738   10.7533 C.2     1  UNL1        0.3160
      3 N          62.4180   88.7076   11.1007 N.am    1  UNL1       -0.1720
      4 C          63.3594   88.8309   12.2621 C.ar    1  UNL1        0.0775
      5 C          63.9513   90.1646   12.6094 C.ar    1  UNL1        0.0168
      6 C          64.8926   90.2879   13.7707 C.ar    1  UNL1        0.0028
      7 C          65.2419   89.0773   14.5847 C.ar    1  UNL1        0.0003
      8 C          64.6500   87.7436   14.2374 C.ar    1  UNL1        0.0051
      9 C          63.7087   87.6203   13.0761 C.ar    1  UNL1        0.0623
     10 C          63.1168   86.2865   12.7287 C.2     1  UNL1        0.2419
     11 N          63.2745   84.9276   13.3438 N.2     1  UNL1       -0.0302
     12 C          62.4306   83.9645   12.5626 C.2     1  UNL1        0.3765
     13 N          61.7514   84.7282   11.4647 N.2     1  UNL1       -0.0256
     14 C          62.1755   86.1633   11.5673 C.2     1  UNL1        0.2907
     15 C          62.2906   82.4955   12.8321 C.ar    1  UNL1        0.0989
     16 C          61.5487   82.0232   14.0472 C.ar    1  UNL1        0.0085
     17 C          61.4087   80.5543   14.3166 C.ar    1  UNL1        0.0003
     18 C          62.0106   79.5576   13.3708 C.ar    1  UNL1        0.0009
     19 C          62.7525   80.0299   12.1557 C.ar    1  UNL1        0.0116
     20 C          62.8925   81.4988   11.8863 C.ar    1  UNL1        0.0651
     21 CL         63.6344   81.9711   10.6712 Cl      1  UNL1       -0.0820
     22 C          65.4845   91.6217   14.1181 C.ar    1  UNL1        0.0192
     23 C          66.0004   91.8753   15.5036 C.ar    1  UNL1        0.0031
     24 C          66.5924   93.2090   15.8510 C.ar    1  UNL1        0.0207
     25 C          66.6684   94.2892   14.8129 C.ar    1  UNL1        0.0989
     26 N          66.1526   94.0356   13.4275 N.ar    1  UNL1       -0.2423
     27 C          65.5606   92.7017   13.0801 C.ar    1  UNL1        0.0988
@<TRIPOS>BOND
     1     1     2    2
     2     2     3    1
     3     3     4    2
     4     4     5   ar
     5     5     6   ar
     6     6    22    1
     7    22    23   ar
     8    23    24   ar
     9    24    25   ar
    10    25    26   ar
    11    26    27   ar
    12     6     7   ar
    13     7     8   ar
    14     8     9   ar
    15     9    10    2
    16    10    11    1
    17    11    12    2
    18    12    15    1
    19    15    16   ar
    20    16    17   ar
    21    17    18   ar
    22    18    19   ar
    23    19    20   ar
    24    20    21    1
    25    12    13    1
    26    13    14    2
    27    14     2    1
    28     9     4   ar
    29    14    10    1
    30    27    22   ar
    31    20    15   ar
@<TRIPOS>MOLECULE
*****
 27 31 0 0 0
SMALL
GASTEIGER

@<TRIPOS>ATOM
      1 O          63.1643   88.6022   18.0225 O.2     1  UNL1       -0.2638
      2 C          63.3071   87.9418   16.6832 C.2     1  UNL1        0.3160
      3 N          62.9397   86.4971   16.5164 N.am    1  UNL1       -0.1720
      4 C          63.0825   85.8367   15.1771 C.ar    1  UNL1        0.0775
      5 C          62.7152   84.3920   15.0103 C.ar    1  UNL1        0.0168
      6 C          62.8580   83.7317   13.6711 C.ar    1  UNL1        0.0028
      7 C          63.3681   84.5161   12.4987 C.ar    1  UNL1        0.0003
      8 C          63.7355   85.9608   12.6655 C.ar    1  UNL1        0.0051
      9 C          63.5927   86.6211   14.0047 C.ar    1  UNL1        0.0623
     10 C          63.9600   88.0659   14.1716 C.2     1  UNL1        0.2419
     11 N          64.4860   89.0858   13.2056 N.2     1  UNL1       -0.0302
     12 C          64.6682   90.3765   13.9479 C.2     1  UNL1        0.3765
     13 N          64.2549   90.1542   15.3726 N.2     1  UNL1       -0.0256
     14 C          63.8172   88.7262   15.5109 C.2     1  UNL1        0.2907
     15 C          65.1748   91.6635   13.3673 C.ar    1  UNL1        0.0989
     16 C          64.8605   92.0195   11.9445 C.ar    1  UNL1        0.0085
     17 C          65.3671   93.3065   11.3640 C.ar    1  UNL1        0.0003
     18 C          66.1881   94.2374   12.2063 C.ar    1  UNL1        0.0009
     19 C          66.5024   93.8813   13.6291 C.ar    1  UNL1        0.0116
     20 C          65.9958   92.5944   14.2096 C.ar    1  UNL1        0.0651
     21 CL         66.3101   92.2383   15.6325 Cl      1  UNL1       -0.0820
     22 C          62.4907   82.2870   13.5042 C.ar    1  UNL1        0.0192
     23 C          61.4186   81.6819   14.3612 C.ar    1  UNL1        0.0031
     24 C          61.0513   80.2372   14.1944 C.ar    1  UNL1        0.0207
     25 C          61.7560   79.3975   13.1704 C.ar    1  UNL1        0.0989
     26 N          62.8280   80.0026   12.3133 N.ar    1  UNL1       -0.2423
     27 C          63.1954   81.4474   12.4802 C.ar    1  UNL1        0.0988
@<TRIPOS>BOND
     1     1     2    2
     2     2     3    1
     3     3     4    2
     4     4     5   ar
     5     5     6   ar
     6     6    22    1
     7    22    23   ar
     8    23    24   ar
     9    24    25   ar
    10    25    26   ar
    11    26    27   ar
    12     6     7   ar
    13     7     8   ar
    14     8     9   ar
    15     9    10    2
    16    10    11    1
    17    11    12    2
    18    12    15    1
    19    15    16   ar
    20    16    17   ar
    21    17    18   ar
    22    18    19   ar
    23    19    20   ar
    24    20    21    1
    25    12    13    1
    26    13    14    2
    27    14     2    1
    28     9     4   ar
    29    14    10    1
    30    27    22   ar
    31    20    15   ar
@<TRIPOS>MOLECULE
*****
 27 31 0 0 0
SMALL
GASTEIGER

@<TRIPOS>ATOM
      1 O          60.4490   88.0804    9.0173 O.2     1  UNL1       -0.2638
      2 C          61.5069   88.4988    9.9951 C.2     1  UNL1        0.3160
      3 N          62.0776   89.8847    9.9352 N.am    1  UNL1       -0.1720
      4 C          63.1354   90.3031   10.9130 C.ar    1  UNL1        0.0775
      5 C          63.7061   91.6890   10.8531 C.ar    1  UNL1        0.0168
      6 C          64.7639   92.1073   11.8309 C.ar    1  UNL1        0.0028
      7 C          65.2511   91.1398   12.8684 C.ar    1  UNL1        0.0003
      8 C          64.6804   89.7539   12.9283 C.ar    1  UNL1        0.0051
      9 C          63.6226   89.3355   11.9505 C.ar    1  UNL1        0.0623
     10 C          63.0519   87.9496   12.0103 C.2     1  UNL1        0.2419
     11 N          63.3330   86.7867   12.9151 N.2     1  UNL1       -0.0302
     12 C          62.4488   85.6495   12.4965 C.2     1  UNL1        0.3765
     13 N          61.6214   86.1097   11.3331 N.2     1  UNL1       -0.0256
     14 C          61.9941   87.5312   11.0326 C.2     1  UNL1        0.2907
     15 C          62.4006   84.2907   13.1301 C.ar    1  UNL1        0.0989
     16 C          62.0237   84.1499   14.5751 C.ar    1  UNL1        0.0085
     17 C          61.9755   82.7912   15.2086 C.ar    1  UNL1        0.0003
     18 C          62.3043   81.5732   14.3971 C.ar    1  UNL1        0.0009
     19 C          62.6812   81.7140   12.9521 C.ar    1  UNL1        0.0116
     20 C          62.7294   83.0727   12.3186 C.ar    1  UNL1        0.0651
     21 CL         63.1063   83.2136   10.8735 Cl      1  UNL1       -0.0820
     22 C          65.3346   93.4933   11.7711 C.ar    1  UNL1        0.0192
     23 C          65.1987   94.3069   10.5183 C.ar    1  UNL1        0.0031
     24 C          65.7693   95.6928   10.4584 C.ar    1  UNL1        0.0207
     25 C          66.4760   96.2651   11.6514 C.ar    1  UNL1        0.0989
     26 N          66.6119   95.4515   12.9042 N.ar    1  UNL1       -0.2423
     27 C          66.0412   94.0655   12.9640 C.ar    1  UNL1        0.0988
@<TRIPOS>BOND
     1     1     2    2
     2     2     3    1
     3     3     4    2
     4     4     5   ar
     5     5     6   ar
     6     6    22    1
     7    22    23   ar
     8    23    24   ar
     9    24    25   ar
    10    25    26   ar
    11    26    27   ar
    12     6     7   ar
    13     7     8   ar
    14     8     9   ar
    15     9    10    2
    16    10    11    1
    17    11    12    2
    18    12    15    1
    19    15    16   ar
    20    16    17   ar
    21    17    18   ar
    22    18    19   ar
    23    19    20   ar
    24    20    21    1
    25    12    13    1
    26    13    14    2
    27    14     2    1
    28     9     4   ar
    29    14    10    1
    30    27    22   ar
    31    20    15   ar
