@<TRIPOS>MOLECULE
*****
 30 33 0 0 0
SMALL
GASTEIGER

@<TRIPOS>ATOM
      1 C          61.4399   88.8612    9.7143 C.3     1  UNL1        0.0634
      2 C          60.0659   89.4043    9.9737 C.3     1  UNL1        0.2320
      3 O          59.7357   90.8097   10.3808 O.3     1  UNL1       -0.3601
      4 O          59.0800   88.2953    9.7544 O.3     1  UNL1       -0.3306
      5 C          59.8447   87.0667    9.3595 C.3     1  UNL1        0.1452
      6 C          61.3032   87.4165    9.3347 C.3     1  UNL1        0.0393
      7 H          58.7754   90.8994   10.4837 H       1  UNL1        0.2129
      8 C          62.7249   89.6282    9.8166 C.3     1  UNL1        0.0317
      9 C          63.7487   89.3130   13.6379 C.ar    1  UNL1        0.1751
     10 C          63.1799   88.9789   12.2907 C.ar    1  UNL1        0.0360
     11 C          63.2937   89.9622   11.1638 C.ar    1  UNL1       -0.0158
     12 C          63.9763   91.2796   11.3839 C.ar    1  UNL1        0.0360
     13 C          64.5451   91.6137   12.7311 C.ar    1  UNL1        0.1751
     14 C          64.4313   90.6304   13.8581 C.ar    1  UNL1        0.2060
     15 C          64.4514   87.0716   14.7479 C.3     1  UNL1        0.2526
     16 O          63.6348   88.3297   14.7649 O.3     1  UNL1       -0.4683
     17 O          65.2278   92.9311   12.9512 O.3     1  UNL1       -0.4683
     18 C          65.9512   93.5992   11.8197 C.3     1  UNL1        0.2526
     19 O          65.0001   90.9645   15.2053 O.3     1  UNL1       -0.4654
     20 C          64.1021   91.4750   16.2929 C.3     1  UNL1        0.2528
     21 C          62.4275   86.4851    8.9907 C.3     1  UNL1        0.0291
     22 C          62.7993   85.3782    9.9325 C.ar    1  UNL1       -0.0189
     23 C          63.5523   84.1839    9.4261 C.ar    1  UNL1       -0.0009
     24 C          63.9241   83.0771   10.3678 C.ar    1  UNL1        0.0399
     25 C          63.5429   83.1647   11.8159 C.ar    1  UNL1        0.1764
     26 C          62.7899   84.3591   12.3223 C.ar    1  UNL1        0.1761
     27 C          62.4181   85.4659   11.3806 C.ar    1  UNL1        0.0359
     28 O          62.5520   84.1685   13.7910 O.3     1  UNL1       -0.4346
     29 C          63.1580   82.8564   14.1923 C.3     1  UNL1        0.4294
     30 O          63.7704   82.2360   12.9716 O.3     1  UNL1       -0.4346
@<TRIPOS>BOND
     1    15    16    1
     2    16     9    1
     3     9    10   ar
     4    10    11   ar
     5    11     8    1
     6     1     8    1
     7     1     2    1
     8     2     3    1
     9     2     4    1
    10     4     5    1
    11     5     6    1
    12     6    21    1
    13    21    22    1
    14    22    23   ar
    15    23    24   ar
    16    24    25   ar
    17    25    26   ar
    18    26    27   ar
    19    26    28    1
    20    28    29    1
    21    29    30    1
    22    11    12   ar
    23    12    13   ar
    24    13    17    1
    25    17    18    1
    26    13    14   ar
    27    14    19    1
    28    19    20    1
    29    14     9   ar
    30     6     1    1
    31    27    22   ar
    32    30    25    1
    33     3     7    1
@<TRIPOS>MOLECULE
*****
 30 33 0 0 0
SMALL
GASTEIGER

@<TRIPOS>ATOM
      1 C          61.4051   89.2036   10.4078 C.3     1  UNL1        0.0634
      2 C          60.1447   89.7224   11.0341 C.3     1  UNL1        0.2320
      3 O          59.9412   91.0977   11.5971 O.3     1  UNL1       -0.3601
      4 O          59.1233   88.6244   10.9985 O.3     1  UNL1       -0.3306
      5 C          59.7526   87.4269   10.3502 C.3     1  UNL1        0.1452
      6 C          61.1627   87.7849    9.9851 C.3     1  UNL1        0.0393
      7 H          59.0376   91.1759   11.9411 H       1  UNL1        0.2129
      8 C          62.6834   89.9691   10.2345 C.3     1  UNL1        0.0317
      9 C          65.0401   92.1212   12.5934 C.ar    1  UNL1        0.1751
     10 C          64.2619   91.6790   11.3897 C.ar    1  UNL1        0.0360
     11 C          63.4616   90.4114   11.4382 C.ar    1  UNL1       -0.0158
     12 C          63.4395   89.5858   12.6904 C.ar    1  UNL1        0.0360
     13 C          64.2177   90.0280   13.8941 C.ar    1  UNL1        0.1751
     14 C          65.0180   91.2957   13.8456 C.ar    1  UNL1        0.2060
     15 C          66.0620   94.0864   11.2355 C.3     1  UNL1        0.2526
     16 O          65.8404   93.3889   12.5449 O.3     1  UNL1       -0.4683
     17 O          64.1956   89.2024   15.1463 O.3     1  UNL1       -0.4683
     18 C          63.2325   89.5353   16.2471 C.3     1  UNL1        0.2526
     19 O          65.7962   91.7379   15.0493 O.3     1  UNL1       -0.4654
     20 C          67.2893   91.5956   15.0709 C.3     1  UNL1        0.2528
     21 C          62.1562   86.8827    9.3150 C.3     1  UNL1        0.0291
     22 C          62.6559   85.6591   10.0245 C.ar    1  UNL1       -0.0189
     23 C          63.3642   84.5833    9.2559 C.ar    1  UNL1       -0.0009
     24 C          63.8639   83.3598    9.9652 C.ar    1  UNL1        0.0399
     25 C          63.6553   83.2121   11.4433 C.ar    1  UNL1        0.1764
     26 C          62.9470   84.2879   12.2120 C.ar    1  UNL1        0.1761
     27 C          62.4473   85.5115   11.5026 C.ar    1  UNL1        0.0359
     28 O          62.8880   83.8675   13.6506 O.3     1  UNL1       -0.4346
     29 C          63.5598   82.5318   13.7711 C.3     1  UNL1        0.4294
     30 O          64.0340   82.1267   12.4069 O.3     1  UNL1       -0.4346
@<TRIPOS>BOND
     1    15    16    1
     2    16     9    1
     3     9    10   ar
     4    10    11   ar
     5    11     8    1
     6     1     8    1
     7     1     2    1
     8     2     3    1
     9     2     4    1
    10     4     5    1
    11     5     6    1
    12     6    21    1
    13    21    22    1
    14    22    23   ar
    15    23    24   ar
    16    24    25   ar
    17    25    26   ar
    18    26    27   ar
    19    26    28    1
    20    28    29    1
    21    29    30    1
    22    11    12   ar
    23    12    13   ar
    24    13    17    1
    25    17    18    1
    26    13    14   ar
    27    14    19    1
    28    19    20    1
    29    14     9   ar
    30     6     1    1
    31    27    22   ar
    32    30    25    1
    33     3     7    1
@<TRIPOS>MOLECULE
*****
 30 33 0 0 0
SMALL
GASTEIGER

@<TRIPOS>ATOM
      1 C          61.4089   89.1791   10.3909 C.3     1  UNL1        0.0634
      2 C          60.1471   89.7017   11.0112 C.3     1  UNL1        0.2320
      3 O          59.9471   91.0756   11.5789 O.3     1  UNL1       -0.3601
      4 O          59.1204   88.6091   10.9641 O.3     1  UNL1       -0.3306
      5 C          59.7477   87.4113   10.3146 C.3     1  UNL1        0.1452
      6 C          61.1621   87.7636    9.9604 C.3     1  UNL1        0.0393
      7 H          59.0417   91.1569   11.9173 H       1  UNL1        0.2129
      8 C          62.6923   89.9387   10.2294 C.3     1  UNL1        0.0317
      9 C          64.2033   89.9907   13.8987 C.ar    1  UNL1        0.1751
     10 C          63.4360   89.5487   12.6880 C.ar    1  UNL1        0.0360
     11 C          63.4596   90.3807   11.4402 C.ar    1  UNL1       -0.0158
     12 C          64.2505   91.6547   11.4030 C.ar    1  UNL1        0.0360
     13 C          65.0178   92.0967   12.6138 C.ar    1  UNL1        0.1751
     14 C          64.9942   91.2647   13.8617 C.ar    1  UNL1        0.2060
     15 C          63.2391   89.5064   16.2622 C.3     1  UNL1        0.2526
     16 O          64.1797   89.1587   15.1466 O.3     1  UNL1       -0.4683
     17 O          65.8087   93.3707   12.5766 O.3     1  UNL1       -0.4683
     18 C          66.1684   93.9920   11.2595 C.3     1  UNL1        0.2526
     19 O          65.7615   91.7067   15.0724 O.3     1  UNL1       -0.4654
     20 C          67.2579   91.6044   15.0905 C.3     1  UNL1        0.2528
     21 C          62.1553   86.8592    9.2928 C.3     1  UNL1        0.0291
     22 C          62.6526   85.6359   10.0046 C.ar    1  UNL1       -0.0189
     23 C          63.3732   84.5648    9.2410 C.ar    1  UNL1       -0.0009
     24 C          63.8705   83.3417    9.9527 C.ar    1  UNL1        0.0399
     25 C          63.6471   83.1897   11.4282 C.ar    1  UNL1        0.1764
     26 C          62.9264   84.2609   12.1919 C.ar    1  UNL1        0.1761
     27 C          62.4291   85.4840   11.4801 C.ar    1  UNL1        0.0359
     28 O          62.8540   83.8368   13.6289 O.3     1  UNL1       -0.4346
     29 C          63.5300   82.5036   13.7533 C.3     1  UNL1        0.4294
     30 O          64.0201   82.1036   12.3932 O.3     1  UNL1       -0.4346
@<TRIPOS>BOND
     1    15    16    1
     2    16     9    1
     3     9    10   ar
     4    10    11   ar
     5    11     8    1
     6     1     8    1
     7     1     2    1
     8     2     3    1
     9     2     4    1
    10     4     5    1
    11     5     6    1
    12     6    21    1
    13    21    22    1
    14    22    23   ar
    15    23    24   ar
    16    24    25   ar
    17    25    26   ar
    18    26    27   ar
    19    26    28    1
    20    28    29    1
    21    29    30    1
    22    11    12   ar
    23    12    13   ar
    24    13    17    1
    25    17    18    1
    26    13    14   ar
    27    14    19    1
    28    19    20    1
    29    14     9   ar
    30     6     1    1
    31    27    22   ar
    32    30    25    1
    33     3     7    1
@<TRIPOS>MOLECULE
*****
 30 33 0 0 0
SMALL
GASTEIGER

@<TRIPOS>ATOM
      1 C          63.4401   83.2660   13.1285 C.3     1  UNL1        0.0634
      2 C          62.4889   82.1556   13.4637 C.3     1  UNL1        0.2320
      3 O          61.8639   81.2050   12.4862 O.3     1  UNL1       -0.3601
      4 O          62.2724   82.1629   14.9480 O.3     1  UNL1       -0.3306
      5 C          63.0898   83.2777   15.5302 C.3     1  UNL1        0.1452
      6 C          63.8115   83.9595   14.4057 C.3     1  UNL1        0.0393
      7 H          61.2892   80.5844   12.9610 H       1  UNL1        0.2129
      8 C          63.9334   83.6206   11.7571 C.3     1  UNL1        0.0317
      9 C          62.4229   85.3064    8.4972 C.ar    1  UNL1        0.1751
     10 C          63.2428   84.4144    9.3816 C.ar    1  UNL1        0.0360
     11 C          63.1135   84.5126   10.8727 C.ar    1  UNL1       -0.0158
     12 C          62.1643   85.5029   11.4795 C.ar    1  UNL1        0.0360
     13 C          61.3443   86.3949   10.5952 C.ar    1  UNL1        0.1751
     14 C          61.4736   86.2967    9.1040 C.ar    1  UNL1        0.2060
     15 C          61.5820   84.3748    6.2224 C.3     1  UNL1        0.2526
     16 O          62.5522   85.2081    7.0060 O.3     1  UNL1       -0.4683
     17 O          60.3950   87.3852   11.2021 O.3     1  UNL1       -0.4683
     18 C          60.7263   88.8481   11.1868 C.3     1  UNL1        0.2526
     19 O          60.6537   87.1887    8.2197 O.3     1  UNL1       -0.4654
     20 C          59.2535   86.7971    7.8507 C.3     1  UNL1        0.2528
     21 C          64.7414   85.1293   14.5356 C.3     1  UNL1        0.0291
     22 C          64.2679   86.3950   15.1868 C.ar    1  UNL1       -0.0189
     23 C          63.4783   86.3332   16.4605 C.ar    1  UNL1       -0.0009
     24 C          63.0049   87.5988   17.1117 C.ar    1  UNL1        0.0399
     25 C          63.3211   88.9263   16.4891 C.ar    1  UNL1        0.1764
     26 C          64.1108   88.9882   15.2153 C.ar    1  UNL1        0.1761
     27 C          64.5842   87.7226   14.5641 C.ar    1  UNL1        0.0359
     28 O          64.2686   90.4312   14.8373 O.3     1  UNL1       -0.4346
     29 C          63.5764   91.2611   15.8775 C.3     1  UNL1        0.4294
     30 O          62.9908   90.3311   16.8984 O.3     1  UNL1       -0.4346
@<TRIPOS>BOND
     1    15    16    1
     2    16     9    1
     3     9    10   ar
     4    10    11   ar
     5    11     8    1
     6     1     8    1
     7     1     2    1
     8     2     3    1
     9     2     4    1
    10     4     5    1
    11     5     6    1
    12     6    21    1
    13    21    22    1
    14    22    23   ar
    15    23    24   ar
    16    24    25   ar
    17    25    26   ar
    18    26    27   ar
    19    26    28    1
    20    28    29    1
    21    29    30    1
    22    11    12   ar
    23    12    13   ar
    24    13    17    1
    25    17    18    1
    26    13    14   ar
    27    14    19    1
    28    19    20    1
    29    14     9   ar
    30     6     1    1
    31    27    22   ar
    32    30    25    1
    33     3     7    1
@<TRIPOS>MOLECULE
*****
 30 33 0 0 0
SMALL
GASTEIGER

@<TRIPOS>ATOM
      1 C          63.4790   83.3312   13.0818 C.3     1  UNL1        0.0634
      2 C          62.5059   82.2274   13.3730 C.3     1  UNL1        0.2320
      3 O          61.9024   81.2952   12.3647 O.3     1  UNL1       -0.3601
      4 O          62.2422   82.2195   14.8497 O.3     1  UNL1       -0.3306
      5 C          63.0524   83.3184   15.4710 C.3     1  UNL1        0.1452
      6 C          63.8168   84.0054   14.3784 C.3     1  UNL1        0.0393
      7 H          61.3062   80.6755   12.8135 H       1  UNL1        0.2129
      8 C          64.0195   83.6965   11.7311 C.3     1  UNL1        0.0317
      9 C          61.3760   86.3330   10.3855 C.ar    1  UNL1        0.1751
     10 C          62.2051   85.5118   11.3280 C.ar    1  UNL1        0.0360
     11 C          63.1904   84.5178   10.7887 C.ar    1  UNL1       -0.0158
     12 C          63.3468   84.3450    9.3069 C.ar    1  UNL1        0.0360
     13 C          62.5178   85.1663    8.3644 C.ar    1  UNL1        0.1751
     14 C          61.5323   86.1604    8.9037 C.ar    1  UNL1        0.2060
     15 C          60.8097   88.7485   11.1569 C.3     1  UNL1        0.2526
     16 O          60.3906   87.3270   10.9249 O.3     1  UNL1       -0.4683
     17 O          62.6742   84.9936    6.8826 O.3     1  UNL1       -0.4683
     18 C          61.5971   84.3157    6.0888 C.3     1  UNL1        0.2526
     19 O          60.7033   86.9816    7.9613 O.3     1  UNL1       -0.4654
     20 C          59.2529   86.6563    7.7599 C.3     1  UNL1        0.2528
     21 C          64.7544   85.1634   14.5520 C.3     1  UNL1        0.0291
     22 C          64.2733   86.4271   15.2015 C.ar    1  UNL1       -0.0189
     23 C          63.4757   86.3617   16.4701 C.ar    1  UNL1       -0.0009
     24 C          62.9947   87.6254   17.1195 C.ar    1  UNL1        0.0399
     25 C          63.3113   88.9544   16.5003 C.ar    1  UNL1        0.1764
     26 C          64.1090   89.0198   15.2317 C.ar    1  UNL1        0.1761
     27 C          64.5900   87.7562   14.5822 C.ar    1  UNL1        0.0359
     28 O          64.2652   90.4636   14.8562 O.3     1  UNL1       -0.4346
     29 C          63.5641   91.2905   15.8928 C.3     1  UNL1        0.4294
     30 O          62.9746   90.3578   16.9090 O.3     1  UNL1       -0.4346
@<TRIPOS>BOND
     1    15    16    1
     2    16     9    1
     3     9    10   ar
     4    10    11   ar
     5    11     8    1
     6     1     8    1
     7     1     2    1
     8     2     3    1
     9     2     4    1
    10     4     5    1
    11     5     6    1
    12     6    21    1
    13    21    22    1
    14    22    23   ar
    15    23    24   ar
    16    24    25   ar
    17    25    26   ar
    18    26    27   ar
    19    26    28    1
    20    28    29    1
    21    29    30    1
    22    11    12   ar
    23    12    13   ar
    24    13    17    1
    25    17    18    1
    26    13    14   ar
    27    14    19    1
    28    19    20    1
    29    14     9   ar
    30     6     1    1
    31    27    22   ar
    32    30    25    1
    33     3     7    1
@<TRIPOS>MOLECULE
*****
 30 33 0 0 0
SMALL
GASTEIGER

@<TRIPOS>ATOM
      1 C          61.2071   86.5167    8.8324 C.3     1  UNL1        0.0634
      2 C          60.7645   85.8564    7.5603 C.3     1  UNL1        0.2320
      3 O          61.5812   84.9159    6.7246 O.3     1  UNL1       -0.3601
      4 O          59.3617   86.3017    7.2707 O.3     1  UNL1       -0.3306
      5 C          58.9373   87.2372    8.3638 C.3     1  UNL1        0.1452
      6 C          60.0779   87.3701    9.3289 C.3     1  UNL1        0.0393
      7 H          61.0619   84.6322    5.9560 H       1  UNL1        0.2129
      8 C          62.5442   86.3525    9.4920 C.3     1  UNL1        0.0317
      9 C          62.6588   84.4155   12.9540 C.ar    1  UNL1        0.1751
     10 C          62.4485   85.5071   11.9469 C.ar    1  UNL1        0.0360
     11 C          62.7545   85.2610   10.4992 C.ar    1  UNL1       -0.0158
     12 C          63.2709   83.9234   10.0587 C.ar    1  UNL1        0.0360
     13 C          63.4812   82.8317   11.0658 C.ar    1  UNL1        0.1751
     14 C          63.1752   83.0779   12.5135 C.ar    1  UNL1        0.2060
     15 C          63.4608   84.9941   15.3565 C.3     1  UNL1        0.2526
     16 O          62.3528   84.6617   14.4017 O.3     1  UNL1       -0.4683
     17 O          63.9976   81.4941   10.6253 O.3     1  UNL1       -0.4683
     18 C          63.0367   80.3883   10.3033 C.3     1  UNL1        0.2526
     19 O          63.3855   81.9863   13.5207 O.3     1  UNL1       -0.4654
     20 C          62.2219   81.1637   13.9891 C.3     1  UNL1        0.2528
     21 C          60.0875   88.2090   10.5723 C.3     1  UNL1        0.0291
     22 C          61.2267   89.1493   10.8339 C.ar    1  UNL1       -0.0189
     23 C          61.7121   90.0603    9.7457 C.ar    1  UNL1       -0.0009
     24 C          62.8512   91.0006   10.0072 C.ar    1  UNL1        0.0399
     25 C          63.5049   91.0297   11.3570 C.ar    1  UNL1        0.1764
     26 C          63.0195   90.1186   12.4452 C.ar    1  UNL1        0.1761
     27 C          61.8804   89.1784   12.1837 C.ar    1  UNL1        0.0359
     28 O          63.8538   90.3693   13.6663 O.3     1  UNL1       -0.4346
     29 C          64.8549   91.4353   13.3327 C.3     1  UNL1        0.4294
     30 O          64.6393   91.8435   11.9055 O.3     1  UNL1       -0.4346
@<TRIPOS>BOND
     1    15    16    1
     2    16     9    1
     3     9    10   ar
     4    10    11   ar
     5    11     8    1
     6     1     8    1
     7     1     2    1
     8     2     3    1
     9     2     4    1
    10     4     5    1
    11     5     6    1
    12     6    21    1
    13    21    22    1
    14    22    23   ar
    15    23    24   ar
    16    24    25   ar
    17    25    26   ar
    18    26    27   ar
    19    26    28    1
    20    28    29    1
    21    29    30    1
    22    11    12   ar
    23    12    13   ar
    24    13    17    1
    25    17    18    1
    26    13    14   ar
    27    14    19    1
    28    19    20    1
    29    14     9   ar
    30     6     1    1
    31    27    22   ar
    32    30    25    1
    33     3     7    1
@<TRIPOS>MOLECULE
*****
 30 33 0 0 0
SMALL
GASTEIGER

@<TRIPOS>ATOM
      1 C          62.8873   84.1861   10.9041 C.3     1  UNL1        0.0634
      2 C          63.5332   84.0600    9.5561 C.3     1  UNL1        0.2320
      3 O          63.1401   84.8078    8.3167 O.3     1  UNL1       -0.3601
      4 O          64.6413   83.0548    9.6652 O.3     1  UNL1       -0.3306
      5 C          64.6801   82.5596   11.0806 C.3     1  UNL1        0.1452
      6 C          63.5961   83.2588   11.8462 C.3     1  UNL1        0.0393
      7 H          63.7163   84.5428    7.5827 H       1  UNL1        0.2129
      8 C          61.7349   85.0821   11.2492 C.3     1  UNL1        0.0317
      9 C          61.2197   88.7135    9.7334 C.ar    1  UNL1        0.1751
     10 C          61.1033   87.2314    9.9334 C.ar    1  UNL1        0.0360
     11 C          61.8513   86.5642   11.0492 C.ar    1  UNL1       -0.0158
     12 C          62.7157   87.3789   11.9651 C.ar    1  UNL1        0.0360
     13 C          62.8321   88.8610   11.7652 C.ar    1  UNL1        0.1751
     14 C          62.0841   89.5283   10.6493 C.ar    1  UNL1        0.2060
     15 C          59.5220   88.5863    7.7709 C.3     1  UNL1        0.2526
     16 O          60.4716   89.3808    8.6176 O.3     1  UNL1       -0.4683
     17 O          63.6965   89.6758   12.6811 O.3     1  UNL1       -0.4683
     18 C          63.2554   89.9406   14.0901 C.3     1  UNL1        0.2526
     19 O          62.2005   91.0104   10.4494 O.3     1  UNL1       -0.4654
     20 C          63.5204   91.6149   10.0719 C.3     1  UNL1        0.2528
     21 C          63.2770   83.0648   13.2990 C.3     1  UNL1        0.0291
     22 C          63.3919   84.2171   14.2526 C.ar    1  UNL1       -0.0189
     23 C          64.3989   85.3001   14.0023 C.ar    1  UNL1       -0.0009
     24 C          64.5137   86.4524   14.9558 C.ar    1  UNL1        0.0399
     25 C          63.6215   86.5215   16.1596 C.ar    1  UNL1        0.1764
     26 C          62.6144   85.4384   16.4099 C.ar    1  UNL1        0.1761
     27 C          62.4995   84.2862   15.4564 C.ar    1  UNL1        0.0359
     28 O          61.8763   85.7743   17.6717 O.3     1  UNL1       -0.4346
     29 C          62.4272   87.0650   18.2013 C.3     1  UNL1        0.4294
     30 O          63.5058   87.5268   17.2668 O.3     1  UNL1       -0.4346
@<TRIPOS>BOND
     1    15    16    1
     2    16     9    1
     3     9    10   ar
     4    10    11   ar
     5    11     8    1
     6     1     8    1
     7     1     2    1
     8     2     3    1
     9     2     4    1
    10     4     5    1
    11     5     6    1
    12     6    21    1
    13    21    22    1
    14    22    23   ar
    15    23    24   ar
    16    24    25   ar
    17    25    26   ar
    18    26    27   ar
    19    26    28    1
    20    28    29    1
    21    29    30    1
    22    11    12   ar
    23    12    13   ar
    24    13    17    1
    25    17    18    1
    26    13    14   ar
    27    14    19    1
    28    19    20    1
    29    14     9   ar
    30     6     1    1
    31    27    22   ar
    32    30    25    1
    33     3     7    1
@<TRIPOS>MOLECULE
*****
 30 33 0 0 0
SMALL
GASTEIGER

@<TRIPOS>ATOM
      1 C          64.4457   90.1492   14.7586 C.3     1  UNL1        0.0634
      2 C          63.3824   90.4004   15.7864 C.3     1  UNL1        0.2320
      3 O          62.1970   89.5233   16.0612 O.3     1  UNL1       -0.3601
      4 O          63.7127   91.6826   16.4914 O.3     1  UNL1       -0.3306
      5 C          64.9801   92.2239   15.8991 C.3     1  UNL1        0.1452
      6 C          65.4331   91.2763   14.8283 C.3     1  UNL1        0.0393
      7 H          61.6653   89.9120   16.7733 H       1  UNL1        0.2129
      8 C          64.5102   88.9770   13.8250 C.3     1  UNL1        0.0317
      9 C          62.0129   87.0693   11.4013 C.ar    1  UNL1        0.1751
     10 C          63.1385   87.3286   12.3583 C.ar    1  UNL1        0.0360
     11 C          63.3846   88.7176   12.8680 C.ar    1  UNL1       -0.0158
     12 C          62.5052   89.8474   12.4208 C.ar    1  UNL1        0.0360
     13 C          61.3795   89.5882   11.4638 C.ar    1  UNL1        0.1751
     14 C          61.1334   88.1991   10.9540 C.ar    1  UNL1        0.2060
     15 C          62.6208   84.5435   11.3698 C.3     1  UNL1        0.2526
     16 O          61.7668   85.6802   10.8916 O.3     1  UNL1       -0.4683
     17 O          60.5001   90.7180   11.0166 O.3     1  UNL1       -0.4683
     18 C          59.1136   90.8545   11.5724 C.3     1  UNL1        0.2526
     19 O          60.0078   87.9398    9.9971 O.3     1  UNL1       -0.4654
     20 C          60.2973   87.7098    8.5433 C.3     1  UNL1        0.2528
     21 C          66.6584   91.4288   13.9766 C.3     1  UNL1        0.0291
     22 C          66.6911   92.4597   12.8873 C.ar    1  UNL1       -0.0189
     23 C          66.1919   93.8487   13.1541 C.ar    1  UNL1       -0.0009
     24 C          66.2246   94.8795   12.0649 C.ar    1  UNL1        0.0399
     25 C          66.7566   94.5213   10.7090 C.ar    1  UNL1        0.1764
     26 C          67.2558   93.1322   10.4422 C.ar    1  UNL1        0.1761
     27 C          67.2231   92.1013   11.5313 C.ar    1  UNL1        0.0359
     28 O          67.7202   93.0722    9.0171 O.3     1  UNL1       -0.4346
     29 C          67.5079   94.4242    8.4032 C.3     1  UNL1        0.4294
     30 O          66.9124   95.3198    9.4488 O.3     1  UNL1       -0.4346
@<TRIPOS>BOND
     1    15    16    1
     2    16     9    1
     3     9    10   ar
     4    10    11   ar
     5    11     8    1
     6     1     8    1
     7     1     2    1
     8     2     3    1
     9     2     4    1
    10     4     5    1
    11     5     6    1
    12     6    21    1
    13    21    22    1
    14    22    23   ar
    15    23    24   ar
    16    24    25   ar
    17    25    26   ar
    18    26    27   ar
    19    26    28    1
    20    28    29    1
    21    29    30    1
    22    11    12   ar
    23    12    13   ar
    24    13    17    1
    25    17    18    1
    26    13    14   ar
    27    14    19    1
    28    19    20    1
    29    14     9   ar
    30     6     1    1
    31    27    22   ar
    32    30    25    1
    33     3     7    1
@<TRIPOS>MOLECULE
*****
 30 33 0 0 0
SMALL
GASTEIGER

@<TRIPOS>ATOM
      1 C          63.6486   87.3842   15.8039 C.3     1  UNL1        0.0634
      2 C          62.7212   88.2614   16.5916 C.3     1  UNL1        0.2320
      3 O          62.3930   89.6935   16.2894 O.3     1  UNL1       -0.3601
      4 O          62.1795   87.4550   17.7346 O.3     1  UNL1       -0.3306
      5 C          62.7721   86.0794   17.6532 C.3     1  UNL1        0.1452
      6 C          63.6801   86.0357   16.4600 C.3     1  UNL1        0.0393
      7 H          61.7687   90.0289   16.9518 H       1  UNL1        0.2129
      8 C          64.4107   87.7852   14.5757 C.3     1  UNL1        0.0317
      9 C          62.7719   89.6645   11.4883 C.ar    1  UNL1        0.1751
     10 C          63.5000   89.4244   12.7776 C.ar    1  UNL1        0.0360
     11 C          63.6826   88.0253   13.2864 C.ar    1  UNL1       -0.0158
     12 C          63.1372   86.8662   12.5061 C.ar    1  UNL1        0.0360
     13 C          62.4091   87.1063   11.2167 C.ar    1  UNL1        0.1751
     14 C          62.2264   88.5055   10.7078 C.ar    1  UNL1        0.2060
     15 C          63.7430   91.7915   10.3557 C.3     1  UNL1        0.2526
     16 O          62.5893   91.0637   10.9794 O.3     1  UNL1       -0.4683
     17 O          61.8636   85.9472   10.4364 O.3     1  UNL1       -0.4683
     18 C          62.6180   85.4188    9.2525 C.3     1  UNL1        0.2526
     19 O          61.4983   88.7456    9.4186 O.3     1  UNL1       -0.4654
     20 C          60.1090   89.3107    9.4358 C.3     1  UNL1        0.2528
     21 C          64.4793   84.8514   16.0031 C.3     1  UNL1        0.0291
     22 C          63.9914   84.0139   14.8582 C.ar    1  UNL1       -0.0189
     23 C          62.7503   83.1855   15.0105 C.ar    1  UNL1       -0.0009
     24 C          62.2624   82.3480   13.8657 C.ar    1  UNL1        0.0399
     25 C          63.0157   82.3390   12.5686 C.ar    1  UNL1        0.1764
     26 C          64.2569   83.1674   12.4163 C.ar    1  UNL1        0.1761
     27 C          64.7448   84.0049   13.5611 C.ar    1  UNL1        0.0359
     28 O          64.7862   82.9587   11.0284 O.3     1  UNL1       -0.4346
     29 C          63.8722   82.0012   10.3229 C.3     1  UNL1        0.4294
     30 O          62.7779   81.6182   11.2748 O.3     1  UNL1       -0.4346
@<TRIPOS>BOND
     1    15    16    1
     2    16     9    1
     3     9    10   ar
     4    10    11   ar
     5    11     8    1
     6     1     8    1
     7     1     2    1
     8     2     3    1
     9     2     4    1
    10     4     5    1
    11     5     6    1
    12     6    21    1
    13    21    22    1
    14    22    23   ar
    15    23    24   ar
    16    24    25   ar
    17    25    26   ar
    18    26    27   ar
    19    26    28    1
    20    28    29    1
    21    29    30    1
    22    11    12   ar
    23    12    13   ar
    24    13    17    1
    25    17    18    1
    26    13    14   ar
    27    14    19    1
    28    19    20    1
    29    14     9   ar
    30     6     1    1
    31    27    22   ar
    32    30    25    1
    33     3     7    1
