@<TRIPOS>MOLECULE
*****
 27 30 0 0 0
SMALL
GASTEIGER

@<TRIPOS>ATOM
      1 C          61.2658   87.4714    9.4482 C.3     1  UNL1        0.1366
      2 N          62.0517   87.3068   10.7152 N.ar    1  UNL1       -0.2630
      3 C          62.3632   86.0075   11.3970 C.ar    1  UNL1        0.3331
      4 O          61.9434   84.6447   10.9316 O.2     1  UNL1       -0.2462
      5 N          63.1681   86.3103   12.6260 N.ar    1  UNL1       -0.2694
      6 C          63.3541   87.7967   12.7037 C.ar    1  UNL1        0.0986
      7 C          64.0626   88.6690   13.6973 C.ar    1  UNL1        0.0224
      8 C          64.0811   90.1571   13.5098 C.ar    1  UNL1        0.0267
      9 C          63.3911   90.7729   12.3289 C.ar    1  UNL1        0.1011
     10 N          62.6826   89.9007   11.3354 N.ar    1  UNL1       -0.2251
     11 C          62.6641   88.4126   11.5228 C.ar    1  UNL1        0.1633
     12 C          64.7896   91.0294   14.5034 C.ar    1  UNL1        0.0309
     13 C          64.2651   91.4414   15.8469 C.ar    1  UNL1        0.0070
     14 C          65.2983   92.3094   16.5017 C.ar    1  UNL1        0.0109
     15 C          66.4616   92.4340   15.5628 C.ar    1  UNL1        0.1009
     16 S          66.1471   91.6429   14.3278 S.2     1  UNL1       -0.0831
     17 C          67.7185   93.2129   15.8148 C.3     1  UNL1        0.4241
     18 F          68.9754   93.9918   16.0667 F       1  UNL1       -0.1654
     19 F          67.2547   94.2708   14.8578 F       1  UNL1       -0.1654
     20 F          68.1823   92.1550   16.7717 F       1  UNL1       -0.1654
     21 C          63.6946   85.3035   13.6053 C.3     1  UNL1        0.1956
     22 C          62.7538   84.3475   14.2770 C.2     1  UNL1        0.2489
     23 O          61.8419   84.8324   15.3648 O.2     1  UNL1       -0.2728
     24 N          62.7250   82.9066   13.8609 N.am    1  UNL1       -0.2778
     25 C          61.9483   81.6956   14.2850 C.3     1  UNL1        0.0952
     26 C          62.6843   80.8690   13.2725 C.3     1  UNL1        0.0430
     27 C          63.4610   82.0801   12.8484 C.3     1  UNL1        0.0952
@<TRIPOS>BOND
     1     1     2    1
     2     2     3   ar
     3     3     4    2
     4     3     5   ar
     5     5    21    1
     6    21    22    1
     7    22    23    2
     8    22    24   am
     9    24    25    1
    10    25    26    1
    11    26    27    1
    12     5     6   ar
    13     6     7   ar
    14     7     8   ar
    15     8    12    1
    16    12    13   ar
    17    13    14   ar
    18    14    15   ar
    19    15    17    1
    20    17    18    1
    21    17    19    1
    22    17    20    1
    23    15    16   ar
    24     8     9   ar
    25     9    10   ar
    26    10    11   ar
    27    11     2   ar
    28    27    24    1
    29    11     6   ar
    30    16    12   ar
@<TRIPOS>MOLECULE
*****
 27 30 0 0 0
SMALL
GASTEIGER

@<TRIPOS>ATOM
      1 C          64.5864   90.7626   15.2327 C.3     1  UNL1        0.1366
      2 N          64.0793   90.0116   14.0374 N.ar    1  UNL1       -0.2630
      3 C          63.6235   90.6181   12.7434 C.ar    1  UNL1        0.3331
      4 O          63.5947   92.0820   12.4175 O.2     1  UNL1       -0.2462
      5 N          63.2015   89.5036   11.8324 N.ar    1  UNL1       -0.2694
      6 C          63.3965   88.2083   12.5634 C.ar    1  UNL1        0.0986
      7 C          63.1502   86.7836   12.1642 C.ar    1  UNL1        0.0224
      8 C          63.4463   85.6729   13.1278 C.ar    1  UNL1        0.0267
      9 C          63.9889   85.9869   14.4905 C.ar    1  UNL1        0.1011
     10 N          64.2352   87.4116   14.8897 N.ar    1  UNL1       -0.2251
     11 C          63.9390   88.5223   13.9262 C.ar    1  UNL1        0.1633
     12 C          63.2000   84.2480   12.7286 C.ar    1  UNL1        0.0309
     13 C          63.4683   83.6516   11.3787 C.ar    1  UNL1        0.0070
     14 C          63.0762   82.2045   11.4251 C.ar    1  UNL1        0.0109
     15 C          62.5656   81.9065   12.8037 C.ar    1  UNL1        0.1009
     16 S          62.6421   83.1695   13.6093 S.2     1  UNL1       -0.0831
     17 C          62.0662   80.5788   13.2912 C.3     1  UNL1        0.4241
     18 F          61.5668   79.2510   13.7786 F       1  UNL1       -0.1654
     19 F          62.7066   79.9056   12.1135 F       1  UNL1       -0.1654
     20 F          61.4259   81.2519   14.4688 F       1  UNL1       -0.1654
     21 C          62.6766   89.6573   10.4357 C.3     1  UNL1        0.1956
     22 C          61.2434   89.3338   10.1332 C.2     1  UNL1        0.2489
     23 O          60.1592   90.2938   10.5241 O.2     1  UNL1       -0.2728
     24 N          60.8945   88.0502    9.4398 N.am    1  UNL1       -0.2778
     25 C          59.6201   87.4025    8.9856 C.3     1  UNL1        0.0952
     26 C          60.4011   86.2350    8.4592 C.3     1  UNL1        0.0430
     27 C          61.6755   86.8828    8.9134 C.3     1  UNL1        0.0952
@<TRIPOS>BOND
     1     1     2    1
     2     2     3   ar
     3     3     4    2
     4     3     5   ar
     5     5    21    1
     6    21    22    1
     7    22    23    2
     8    22    24   am
     9    24    25    1
    10    25    26    1
    11    26    27    1
    12     5     6   ar
    13     6     7   ar
    14     7     8   ar
    15     8    12    1
    16    12    13   ar
    17    13    14   ar
    18    14    15   ar
    19    15    17    1
    20    17    18    1
    21    17    19    1
    22    17    20    1
    23    15    16   ar
    24     8     9   ar
    25     9    10   ar
    26    10    11   ar
    27    11     2   ar
    28    27    24    1
    29    11     6   ar
    30    16    12   ar
@<TRIPOS>MOLECULE
*****
 27 30 0 0 0
SMALL
GASTEIGER

@<TRIPOS>ATOM
      1 C          62.4432   90.8295   10.1598 C.3     1  UNL1        0.1366
      2 N          62.8866   89.9659   11.3034 N.ar    1  UNL1       -0.2630
      3 C          63.5498   90.4415   12.5619 C.ar    1  UNL1        0.3331
      4 O          63.8860   91.8642   12.8979 O.2     1  UNL1       -0.2462
      5 N          63.8177   89.2447   13.4254 N.ar    1  UNL1       -0.2694
      6 C          63.3200   88.0293   12.7006 C.ar    1  UNL1        0.0986
      7 C          63.3166   86.5744   13.0654 C.ar    1  UNL1        0.0224
      8 C          62.7376   85.5653   12.1186 C.ar    1  UNL1        0.0267
      9 C          62.1622   86.0110   10.8071 C.ar    1  UNL1        0.1011
     10 N          62.1656   87.4660   10.4423 N.ar    1  UNL1       -0.2251
     11 C          62.7446   88.4751   11.3891 C.ar    1  UNL1        0.1633
     12 C          62.7341   84.1102   12.4834 C.ar    1  UNL1        0.0309
     13 C          62.7331   83.5501   13.8748 C.ar    1  UNL1        0.0070
     14 C          62.7294   82.0536   13.7721 C.ar    1  UNL1        0.0109
     15 C          62.7281   81.6889   12.3171 C.ar    1  UNL1        0.1009
     16 S          62.7310   82.9599   11.5206 S.2     1  UNL1       -0.0831
     17 C          62.7245   80.2974   11.7569 C.3     1  UNL1        0.4241
     18 F          62.7209   78.9059   11.1968 F       1  UNL1       -0.1654
     19 F          63.0493   80.8435   10.3982 F       1  UNL1       -0.1654
     20 F          62.3998   79.7513   13.1157 F       1  UNL1       -0.1654
     21 C          64.4689   89.2603   14.7766 C.3     1  UNL1        0.1956
     22 C          63.6271   89.1833   16.0159 C.2     1  UNL1        0.2489
     23 O          63.1099   90.4402   16.6505 O.2     1  UNL1       -0.2728
     24 N          63.3025   87.8495   16.6204 N.am    1  UNL1       -0.2778
     25 C          62.5182   87.3881   17.8128 C.3     1  UNL1        0.0952
     26 C          62.8435   85.9631   17.4754 C.3     1  UNL1        0.0430
     27 C          63.6278   86.4246   16.2829 C.3     1  UNL1        0.0952
@<TRIPOS>BOND
     1     1     2    1
     2     2     3   ar
     3     3     4    2
     4     3     5   ar
     5     5    21    1
     6    21    22    1
     7    22    23    2
     8    22    24   am
     9    24    25    1
    10    25    26    1
    11    26    27    1
    12     5     6   ar
    13     6     7   ar
    14     7     8   ar
    15     8    12    1
    16    12    13   ar
    17    13    14   ar
    18    14    15   ar
    19    15    17    1
    20    17    18    1
    21    17    19    1
    22    17    20    1
    23    15    16   ar
    24     8     9   ar
    25     9    10   ar
    26    10    11   ar
    27    11     2   ar
    28    27    24    1
    29    11     6   ar
    30    16    12   ar
@<TRIPOS>MOLECULE
*****
 27 30 0 0 0
SMALL
GASTEIGER

@<TRIPOS>ATOM
      1 C          59.0176   88.7243    7.4332 C.3     1  UNL1        0.1366
      2 N          60.0832   88.1488    8.3182 N.ar    1  UNL1       -0.2630
      3 C          60.5454   86.7219    8.3282 C.ar    1  UNL1        0.3331
      4 O          60.0231   85.6197    7.4550 O.2     1  UNL1       -0.2462
      5 N          61.6216   86.5905    9.3648 N.ar    1  UNL1       -0.2694
      6 C          61.8245   87.9363    9.9954 C.ar    1  UNL1        0.0986
      7 C          62.7522   88.4092   11.0751 C.ar    1  UNL1        0.0224
      8 C          62.7291   89.8452   11.5079 C.ar    1  UNL1        0.0267
      9 C          61.7783   90.8083   10.8610 C.ar    1  UNL1        0.1011
     10 N          60.8506   90.3354    9.7814 N.ar    1  UNL1       -0.2251
     11 C          60.8737   88.8994    9.3486 C.ar    1  UNL1        0.1633
     12 C          63.6569   90.3182   12.5876 C.ar    1  UNL1        0.0309
     13 C          63.9373   89.6120   13.8809 C.ar    1  UNL1        0.0070
     14 C          64.9208   90.4377   14.6561 C.ar    1  UNL1        0.0109
     15 C          65.2482   91.6543   13.8419 C.ar    1  UNL1        0.1009
     16 S          64.4670   91.5803   12.5635 S.2     1  UNL1       -0.0831
     17 C          66.1911   92.7519   14.2368 C.3     1  UNL1        0.4241
     18 F          67.1341   93.8496   14.6316 F       1  UNL1       -0.1654
     19 F          66.6852   92.8361   12.8230 F       1  UNL1       -0.1654
     20 F          65.6971   92.6677   15.6506 F       1  UNL1       -0.1654
     21 C          62.3645   85.3340    9.7102 C.3     1  UNL1        0.1956
     22 C          62.4496   84.8814   11.1378 C.2     1  UNL1        0.2489
     23 O          61.6485   85.5811   12.1955 O.2     1  UNL1       -0.2728
     24 N          63.3359   83.7292   11.5077 N.am    1  UNL1       -0.2778
     25 C          63.6703   83.0154   12.7839 C.3     1  UNL1        0.0952
     26 C          64.5894   82.0997   12.0308 C.3     1  UNL1        0.0430
     27 C          64.2549   82.8135   10.7547 C.3     1  UNL1        0.0952
@<TRIPOS>BOND
     1     1     2    1
     2     2     3   ar
     3     3     4    2
     4     3     5   ar
     5     5    21    1
     6    21    22    1
     7    22    23    2
     8    22    24   am
     9    24    25    1
    10    25    26    1
    11    26    27    1
    12     5     6   ar
    13     6     7   ar
    14     7     8   ar
    15     8    12    1
    16    12    13   ar
    17    13    14   ar
    18    14    15   ar
    19    15    17    1
    20    17    18    1
    21    17    19    1
    22    17    20    1
    23    15    16   ar
    24     8     9   ar
    25     9    10   ar
    26    10    11   ar
    27    11     2   ar
    28    27    24    1
    29    11     6   ar
    30    16    12   ar
@<TRIPOS>MOLECULE
*****
 27 30 0 0 0
SMALL
GASTEIGER

@<TRIPOS>ATOM
      1 C          62.2657   90.8327    9.9971 C.3     1  UNL1        0.1366
      2 N          62.7974   90.0534   11.1633 N.ar    1  UNL1       -0.2630
      3 C          63.5489   90.6182   12.3322 C.ar    1  UNL1        0.3331
      4 O          63.9006   92.0615   12.5401 O.2     1  UNL1       -0.2462
      5 N          63.8868   89.4864   13.2566 N.ar    1  UNL1       -0.2694
      6 C          63.3443   88.2220   12.6591 C.ar    1  UNL1        0.0986
      7 C          63.3763   86.7969   13.1260 C.ar    1  UNL1        0.0224
      8 C          62.7351   85.7222   12.2990 C.ar    1  UNL1        0.0267
      9 C          62.0618   86.0727   11.0053 C.ar    1  UNL1        0.1011
     10 N          62.0297   87.4978   10.5384 N.ar    1  UNL1       -0.2251
     11 C          62.6710   88.5724   11.3653 C.ar    1  UNL1        0.1633
     12 C          62.7671   84.2970   12.7659 C.ar    1  UNL1        0.0309
     13 C          62.8781   83.8378   14.1895 C.ar    1  UNL1        0.0070
     14 C          62.8734   82.3379   14.1945 C.ar    1  UNL1        0.0109
     15 C          62.7595   81.8700   12.7738 C.ar    1  UNL1        0.1009
     16 S          62.6938   83.0808   11.8909 S.2     1  UNL1       -0.0831
     17 C          62.7184   80.4420   12.3164 C.3     1  UNL1        0.4241
     18 F          62.6774   79.0141   11.8591 F       1  UNL1       -0.1654
     19 F          62.4474   79.9991   13.7237 F       1  UNL1       -0.1654
     20 F          62.9895   80.8850   10.9092 F       1  UNL1       -0.1654
     21 C          64.6359   89.5991   14.5513 C.3     1  UNL1        0.1956
     22 C          64.7576   90.9292   15.2341 C.2     1  UNL1        0.2489
     23 O          63.5815   91.5087   15.9626 O.2     1  UNL1       -0.2728
     24 N          66.0556   91.6797   15.1883 N.am    1  UNL1       -0.2778
     25 C          66.5428   92.9900   15.7320 C.3     1  UNL1        0.0952
     26 C          67.8911   92.7411   15.1235 C.3     1  UNL1        0.0430
     27 C          67.4038   91.4308   14.5798 C.3     1  UNL1        0.0952
@<TRIPOS>BOND
     1     1     2    1
     2     2     3   ar
     3     3     4    2
     4     3     5   ar
     5     5    21    1
     6    21    22    1
     7    22    23    2
     8    22    24   am
     9    24    25    1
    10    25    26    1
    11    26    27    1
    12     5     6   ar
    13     6     7   ar
    14     7     8   ar
    15     8    12    1
    16    12    13   ar
    17    13    14   ar
    18    14    15   ar
    19    15    17    1
    20    17    18    1
    21    17    19    1
    22    17    20    1
    23    15    16   ar
    24     8     9   ar
    25     9    10   ar
    26    10    11   ar
    27    11     2   ar
    28    27    24    1
    29    11     6   ar
    30    16    12   ar
@<TRIPOS>MOLECULE
*****
 27 30 0 0 0
SMALL
GASTEIGER

@<TRIPOS>ATOM
      1 C          66.4278   92.3125   15.9663 C.3     1  UNL1        0.1366
      2 N          65.8693   92.2916   14.5743 N.ar    1  UNL1       -0.2630
      3 C          66.0564   93.3552   13.5332 C.ar    1  UNL1        0.3331
      4 O          66.8348   94.6263   13.7013 O.2     1  UNL1       -0.2462
      5 N          65.3283   92.9244   12.2946 N.ar    1  UNL1       -0.2694
      6 C          64.6912   91.5946   12.5701 C.ar    1  UNL1        0.0986
      7 C          63.8499   90.6894   11.7200 C.ar    1  UNL1        0.0224
      8 C          63.3430   89.3930   12.2790 C.ar    1  UNL1        0.0267
      9 C          63.6773   89.0020   13.6880 C.ar    1  UNL1        0.1011
     10 N          64.5187   89.9072   14.5380 N.ar    1  UNL1       -0.2251
     11 C          65.0256   91.2036   13.9791 C.ar    1  UNL1        0.1633
     12 C          62.5016   88.4877   11.4289 C.ar    1  UNL1        0.0309
     13 C          62.4514   86.9911   11.5166 C.ar    1  UNL1        0.0070
     14 C          61.4815   86.4985   10.4838 C.ar    1  UNL1        0.0109
     15 C          60.9322   87.6907    9.7578 C.ar    1  UNL1        0.1009
     16 S          61.5627   88.9201   10.3419 S.2     1  UNL1       -0.0831
     17 C          59.9287   87.6591    8.6434 C.3     1  UNL1        0.4241
     18 F          58.9252   87.6274    7.5290 F       1  UNL1       -0.1654
     19 F          60.0285   89.1499    8.5112 F       1  UNL1       -0.1654
     20 F          59.8290   86.1683    8.7756 F       1  UNL1       -0.1654
     21 C          65.2508   93.6891   11.0065 C.3     1  UNL1        0.1956
     22 C          66.4697   93.8302   10.1435 C.2     1  UNL1        0.2489
     23 O          67.4740   92.7181   10.0765 O.2     1  UNL1       -0.2728
     24 N          66.6841   95.0834    9.3476 N.am    1  UNL1       -0.2778
     25 C          67.7434   95.5730    8.4052 C.3     1  UNL1        0.0952
     26 C          66.9874   96.8557    8.2220 C.3     1  UNL1        0.0430
     27 C          65.9282   96.3660    9.1644 C.3     1  UNL1        0.0952
@<TRIPOS>BOND
     1     1     2    1
     2     2     3   ar
     3     3     4    2
     4     3     5   ar
     5     5    21    1
     6    21    22    1
     7    22    23    2
     8    22    24   am
     9    24    25    1
    10    25    26    1
    11    26    27    1
    12     5     6   ar
    13     6     7   ar
    14     7     8   ar
    15     8    12    1
    16    12    13   ar
    17    13    14   ar
    18    14    15   ar
    19    15    17    1
    20    17    18    1
    21    17    19    1
    22    17    20    1
    23    15    16   ar
    24     8     9   ar
    25     9    10   ar
    26    10    11   ar
    27    11     2   ar
    28    27    24    1
    29    11     6   ar
    30    16    12   ar
@<TRIPOS>MOLECULE
*****
 27 30 0 0 0
SMALL
GASTEIGER

@<TRIPOS>ATOM
      1 C          66.6130   91.6054   15.4171 C.3     1  UNL1        0.1366
      2 N          65.9648   91.9540   14.1101 N.ar    1  UNL1       -0.2630
      3 C          66.2074   93.1995   13.3102 C.ar    1  UNL1        0.3331
      4 O          67.1407   94.3151   13.6768 O.2     1  UNL1       -0.2462
      5 N          65.3528   93.1336   12.0792 N.ar    1  UNL1       -0.2694
      6 C          64.5820   91.8474   12.1183 C.ar    1  UNL1        0.0986
      7 C          63.5845   91.2459   11.1732 C.ar    1  UNL1        0.0224
      8 C          62.9654   89.9153   11.4833 C.ar    1  UNL1        0.0267
      9 C          63.3437   89.1863   12.7384 C.ar    1  UNL1        0.1011
     10 N          64.3411   89.7878   13.6835 N.ar    1  UNL1       -0.2251
     11 C          64.9602   91.1184   13.3735 C.ar    1  UNL1        0.1633
     12 C          61.9679   89.3137   10.5381 C.ar    1  UNL1        0.0309
     13 C          60.7282   89.9819   10.0218 C.ar    1  UNL1        0.0070
     14 C          60.0292   89.0195    9.1080 C.ar    1  UNL1        0.0109
     15 C          60.8369   87.7564    9.0596 C.ar    1  UNL1        0.1009
     16 S          62.0351   87.9382    9.9435 S.2     1  UNL1       -0.0831
     17 C          60.5047   86.5273    8.2665 C.3     1  UNL1        0.4241
     18 F          60.1725   85.2982    7.4735 F       1  UNL1       -0.1654
     19 F          61.9518   86.1326    8.2720 F       1  UNL1       -0.1654
     20 F          59.0576   86.9219    8.2611 F       1  UNL1       -0.1654
     21 C          65.2814   94.1717   10.9988 C.3     1  UNL1        0.1956
     22 C          66.5309   94.6037   10.2900 C.2     1  UNL1        0.2489
     23 O          66.8208   96.0635   10.1035 O.2     1  UNL1       -0.2728
     24 N          67.4904   93.5758    9.7677 N.am    1  UNL1       -0.2778
     25 C          68.7973   93.6213    9.0330 C.3     1  UNL1        0.0952
     26 C          68.8474   92.1221    9.0292 C.3     1  UNL1        0.0430
     27 C          67.5404   92.0766    9.7639 C.3     1  UNL1        0.0952
@<TRIPOS>BOND
     1     1     2    1
     2     2     3   ar
     3     3     4    2
     4     3     5   ar
     5     5    21    1
     6    21    22    1
     7    22    23    2
     8    22    24   am
     9    24    25    1
    10    25    26    1
    11    26    27    1
    12     5     6   ar
    13     6     7   ar
    14     7     8   ar
    15     8    12    1
    16    12    13   ar
    17    13    14   ar
    18    14    15   ar
    19    15    17    1
    20    17    18    1
    21    17    19    1
    22    17    20    1
    23    15    16   ar
    24     8     9   ar
    25     9    10   ar
    26    10    11   ar
    27    11     2   ar
    28    27    24    1
    29    11     6   ar
    30    16    12   ar
@<TRIPOS>MOLECULE
*****
 27 30 0 0 0
SMALL
GASTEIGER

@<TRIPOS>ATOM
      1 C          66.5068   93.6164   12.9517 C.3     1  UNL1        0.1366
      2 N          65.5490   92.4995   13.2432 N.ar    1  UNL1       -0.2630
      3 C          65.3371   91.8450   14.5761 C.ar    1  UNL1        0.3331
      4 O          66.0459   92.1924   15.8516 O.2     1  UNL1       -0.2462
      5 N          64.2920   90.7820   14.4095 N.ar    1  UNL1       -0.2694
      6 C          63.8579   90.7796   12.9737 C.ar    1  UNL1        0.0986
      7 C          62.8556   89.9480   12.2296 C.ar    1  UNL1        0.0224
      8 C          62.6302   90.1779   10.7646 C.ar    1  UNL1        0.0267
      9 C          63.4071   91.2394   10.0437 C.ar    1  UNL1        0.1011
     10 N          64.4093   92.0710   10.7879 N.ar    1  UNL1       -0.2251
     11 C          64.6348   91.8411   12.2529 C.ar    1  UNL1        0.1633
     12 C          61.6279   89.3462   10.0204 C.ar    1  UNL1        0.0309
     13 C          60.1955   89.7110    9.7647 C.ar    1  UNL1        0.0070
     14 C          59.5644   88.5940    8.9875 C.ar    1  UNL1        0.0109
     15 C          60.6067   87.5389    8.7628 C.ar    1  UNL1        0.1009
     16 S          61.8820   88.0038    9.4011 S.2     1  UNL1       -0.0831
     17 C          60.4085   86.2460    8.0286 C.3     1  UNL1        0.4241
     18 F          60.2103   84.9530    7.2945 F       1  UNL1       -0.1654
     19 F          61.8707   85.9423    8.1687 F       1  UNL1       -0.1654
     20 F          58.9463   86.5497    7.8886 F       1  UNL1       -0.1654
     21 C          63.7722   89.8798   15.4893 C.3     1  UNL1        0.1956
     22 C          63.9172   88.3925   15.3582 C.2     1  UNL1        0.2489
     23 O          64.5873   87.8077   14.1503 O.2     1  UNL1       -0.2728
     24 N          63.3920   87.4900   16.4352 N.am    1  UNL1       -0.2778
     25 C          63.3535   86.0060   16.6500 C.3     1  UNL1        0.0952
     26 C          62.6494   86.2136   17.9581 C.3     1  UNL1        0.0430
     27 C          62.6879   87.6977   17.7433 C.3     1  UNL1        0.0952
@<TRIPOS>BOND
     1     1     2    1
     2     2     3   ar
     3     3     4    2
     4     3     5   ar
     5     5    21    1
     6    21    22    1
     7    22    23    2
     8    22    24   am
     9    24    25    1
    10    25    26    1
    11    26    27    1
    12     5     6   ar
    13     6     7   ar
    14     7     8   ar
    15     8    12    1
    16    12    13   ar
    17    13    14   ar
    18    14    15   ar
    19    15    17    1
    20    17    18    1
    21    17    19    1
    22    17    20    1
    23    15    16   ar
    24     8     9   ar
    25     9    10   ar
    26    10    11   ar
    27    11     2   ar
    28    27    24    1
    29    11     6   ar
    30    16    12   ar
@<TRIPOS>MOLECULE
*****
 27 30 0 0 0
SMALL
GASTEIGER

@<TRIPOS>ATOM
      1 C          62.7274   86.7410   18.3326 C.3     1  UNL1        0.1366
      2 N          63.1677   86.7491   16.8987 N.ar    1  UNL1       -0.2630
      3 C          63.4310   85.5404   16.0504 C.ar    1  UNL1        0.3331
      4 O          63.3002   84.1113   16.4871 O.2     1  UNL1       -0.2462
      5 N          63.8480   86.0116   14.6888 N.ar    1  UNL1       -0.2694
      6 C          63.8424   87.5116   14.6956 C.ar    1  UNL1        0.0986
      7 C          64.1659   88.5213   13.6345 C.ar    1  UNL1        0.0224
      8 C          64.0689   89.9867   13.9393 C.ar    1  UNL1        0.0267
      9 C          63.6484   90.4425   15.3051 C.ar    1  UNL1        0.1011
     10 N          63.3250   89.4329   16.3661 N.ar    1  UNL1       -0.2251
     11 C          63.4220   87.9674   16.0614 C.ar    1  UNL1        0.1633
     12 C          64.3924   90.9965   12.8782 C.ar    1  UNL1        0.0309
     13 C          63.7922   91.0553   11.5048 C.ar    1  UNL1        0.0070
     14 C          64.4017   92.2199   10.7821 C.ar    1  UNL1        0.0109
     15 C          65.3786   92.8808   11.7089 C.ar    1  UNL1        0.1009
     16 S          65.3728   92.1247   13.0043 S.2     1  UNL1       -0.0831
     17 C          66.2145   94.0862   11.3952 C.3     1  UNL1        0.4241
     18 F          67.0504   95.2915   11.0816 F       1  UNL1       -0.1654
     19 F          66.0941   93.7885    9.9300 F       1  UNL1       -0.1654
     20 F          66.3349   94.3839   12.8604 F       1  UNL1       -0.1654
     21 C          64.2074   85.1365   13.5247 C.3     1  UNL1        0.1956
     22 C          63.1422   84.3479   12.8221 C.2     1  UNL1        0.2489
     23 O          62.1653   85.0436   11.9212 O.2     1  UNL1       -0.2728
     24 N          63.0540   82.8637   13.0205 N.am    1  UNL1       -0.2778
     25 C          62.1579   81.7764   12.5061 C.3     1  UNL1        0.0952
     26 C          62.9291   80.7648   13.3011 C.3     1  UNL1        0.0430
     27 C          63.8252   81.8522   13.8155 C.3     1  UNL1        0.0952
@<TRIPOS>BOND
     1     1     2    1
     2     2     3   ar
     3     3     4    2
     4     3     5   ar
     5     5    21    1
     6    21    22    1
     7    22    23    2
     8    22    24   am
     9    24    25    1
    10    25    26    1
    11    26    27    1
    12     5     6   ar
    13     6     7   ar
    14     7     8   ar
    15     8    12    1
    16    12    13   ar
    17    13    14   ar
    18    14    15   ar
    19    15    17    1
    20    17    18    1
    21    17    19    1
    22    17    20    1
    23    15    16   ar
    24     8     9   ar
    25     9    10   ar
    26    10    11   ar
    27    11     2   ar
    28    27    24    1
    29    11     6   ar
    30    16    12   ar
