@<TRIPOS>MOLECULE
*****
 29 31 0 0 0
SMALL
GASTEIGER

@<TRIPOS>ATOM
      1 N          63.2760   89.6018   12.6158 N.ar    1  UNL1       -0.3021
      2 C          64.0471   89.6900   13.8995 C.ar    1  UNL1        0.1434
      3 N          64.2823   88.2942   14.3959 N.ar    1  UNL1       -0.1337
      4 N          63.6566   87.3433   13.4190 N.ar    1  UNL1       -0.1337
      5 C          63.0347   88.1513   12.3189 C.ar    1  UNL1        0.1429
      6 C          63.4112   90.9705   10.4117 C.3     1  UNL1        0.0266
      7 C          62.8254   90.7604   11.7765 C.3     1  UNL1        0.1084
      8 C          64.5029   90.9525   14.5692 C.3     1  UNL1        0.0754
      9 C          65.8969   91.4590   14.3454 C.3     1  UNL1        0.0933
     10 C          66.1393   92.5920   13.3927 C.2     1  UNL1        0.2266
     11 O          66.2659   93.9939   13.9112 O.2     1  UNL1       -0.2748
     12 N          66.2552   92.3232   11.9216 N.am    1  UNL1       -0.2842
     13 H          66.1721   91.4031   11.5812 H       1  UNL1        0.1548
     14 C          66.4976   93.4562   10.9689 C.ar    1  UNL1        0.0462
     15 C          65.7203   94.7316   11.1071 C.ar    1  UNL1        0.0140
     16 C          65.9628   95.8646   10.1545 C.ar    1  UNL1       -0.0030
     17 C          66.9825   95.7222    9.0637 C.ar    1  UNL1       -0.0221
     18 C          67.2249   96.8552    8.1110 C.3     1  UNL1        0.0310
     19 C          67.7598   94.4468    8.9255 C.ar    1  UNL1       -0.0073
     20 C          67.5173   93.3138    9.8781 C.ar    1  UNL1       -0.0087
     21 C          68.2946   92.0383    9.7399 C.3     1  UNL1        0.0323
     22 C          62.3004   87.6050   11.1305 C.3     1  UNL1        0.0659
     23 C          61.6919   86.2352   11.1895 C.3     1  UNL1        0.0080
     24 C          62.5744   85.0223   11.2001 C.3     1  UNL1        0.0004
     25 C          62.8457   84.3035   12.4883 C.3     1  UNL1        0.0000
     26 C          63.7282   83.0906   12.4989 C.3     1  UNL1        0.0000
     27 C          64.3393   82.5966   11.2213 C.3     1  UNL1        0.0000
     28 C          64.0680   83.3155    9.9330 C.3     1  UNL1        0.0000
     29 C          63.1855   84.5283    9.9224 C.3     1  UNL1        0.0000
@<TRIPOS>BOND
     1     6     7    1
     2     7     1    1
     3     1     2   ar
     4     2     8    1
     5     8     9    1
     6     9    10    1
     7    10    11    2
     8    10    12   am
     9    12    14    1
    10    14    15   ar
    11    15    16   ar
    12    16    17   ar
    13    17    18    1
    14    17    19   ar
    15    19    20   ar
    16    20    21    1
    17     2     3   ar
    18     3     4   ar
    19     4     5   ar
    20     5    22    1
    21    22    23    1
    22    23    24    1
    23    24    25    1
    24    25    26    1
    25    26    27    1
    26    27    28    1
    27    28    29    1
    28     5     1   ar
    29    29    24    1
    30    20    14   ar
    31    12    13    1
@<TRIPOS>MOLECULE
*****
 29 31 0 0 0
SMALL
GASTEIGER

@<TRIPOS>ATOM
      1 N          63.3816   89.9178   12.5033 N.ar    1  UNL1       -0.3021
      2 C          64.1510   89.8480   13.7891 C.ar    1  UNL1        0.1434
      3 N          64.2727   88.4046   14.1787 N.ar    1  UNL1       -0.1337
      4 N          63.5785   87.5823   13.1338 N.ar    1  UNL1       -0.1337
      5 C          63.0277   88.5175   12.0983 C.ar    1  UNL1        0.1429
      6 C          63.3344   91.2772   10.2898 C.3     1  UNL1        0.0266
      7 C          63.0281   91.1683   11.7541 C.3     1  UNL1        0.1084
      8 C          64.7020   91.0166   14.5513 C.3     1  UNL1        0.0754
      9 C          66.1564   91.3665   14.4395 C.3     1  UNL1        0.0933
     10 C          66.5999   92.4323   13.4817 C.2     1  UNL1        0.2266
     11 O          67.7187   93.3587   13.8561 O.2     1  UNL1       -0.2748
     12 N          65.9246   92.5717   12.1496 N.am    1  UNL1       -0.2842
     13 H          65.1903   91.9637   11.9039 H       1  UNL1        0.1548
     14 C          66.3681   93.6376   11.1918 C.ar    1  UNL1        0.0462
     15 C          65.7855   95.0168   11.2823 C.ar    1  UNL1        0.0140
     16 C          66.2291   96.0826   10.3245 C.ar    1  UNL1       -0.0030
     17 C          67.2552   95.7691    9.2763 C.ar    1  UNL1       -0.0221
     18 C          67.6988   96.8350    8.3185 C.3     1  UNL1        0.0310
     19 C          67.8378   94.3899    9.1859 C.ar    1  UNL1       -0.0073
     20 C          67.3943   93.3241   10.1436 C.ar    1  UNL1       -0.0087
     21 C          67.9769   91.9448   10.0532 C.3     1  UNL1        0.0323
     22 C          62.2582   88.1218   10.8731 C.3     1  UNL1        0.0659
     23 C          61.7782   86.7098   10.7123 C.3     1  UNL1        0.0080
     24 C          61.6641   86.1077    9.3432 C.3     1  UNL1        0.0004
     25 C          60.3700   86.1969    8.5902 C.3     1  UNL1        0.0000
     26 C          60.2559   85.5948    7.2211 C.3     1  UNL1        0.0000
     27 C          61.4359   84.9035    6.6051 C.3     1  UNL1        0.0000
     28 C          62.7301   84.8143    7.3582 C.3     1  UNL1        0.0000
     29 C          62.8442   85.4164    8.7273 C.3     1  UNL1        0.0000
@<TRIPOS>BOND
     1     6     7    1
     2     7     1    1
     3     1     2   ar
     4     2     8    1
     5     8     9    1
     6     9    10    1
     7    10    11    2
     8    10    12   am
     9    12    14    1
    10    14    15   ar
    11    15    16   ar
    12    16    17   ar
    13    17    18    1
    14    17    19   ar
    15    19    20   ar
    16    20    21    1
    17     2     3   ar
    18     3     4   ar
    19     4     5   ar
    20     5    22    1
    21    22    23    1
    22    23    24    1
    23    24    25    1
    24    25    26    1
    25    26    27    1
    26    27    28    1
    27    28    29    1
    28     5     1   ar
    29    29    24    1
    30    20    14   ar
    31    12    13    1
@<TRIPOS>MOLECULE
*****
 29 31 0 0 0
SMALL
GASTEIGER

@<TRIPOS>ATOM
      1 N          64.2562   90.2736   14.6864 N.ar    1  UNL1       -0.3021
      2 C          63.5365   90.1946   16.0000 C.ar    1  UNL1        0.1434
      3 N          63.9109   91.4022   16.8072 N.ar    1  UNL1       -0.1337
      4 N          64.8621   92.2277   15.9924 N.ar    1  UNL1       -0.1337
      5 C          65.0755   91.5302   14.6816 C.ar    1  UNL1        0.1429
      6 C          63.3265   89.5602   12.3676 C.3     1  UNL1        0.0266
      7 C          64.1716   89.2721   13.5729 C.3     1  UNL1        0.1084
      8 C          62.6056   89.1001   16.4309 C.3     1  UNL1        0.0754
      9 C          63.1577   87.8271   17.0008 C.3     1  UNL1        0.0933
     10 C          62.9112   86.5233   16.3013 C.2     1  UNL1        0.2266
     11 O          61.8070   85.6202   16.7654 O.2     1  UNL1       -0.2748
     12 N          63.7689   86.1225   15.1378 N.am    1  UNL1       -0.2842
     13 H          64.4936   86.7151   14.8332 H       1  UNL1        0.1548
     14 C          63.5224   84.8186   14.4384 C.ar    1  UNL1        0.0462
     15 C          63.7682   83.5244   15.1557 C.ar    1  UNL1        0.0140
     16 C          63.5216   82.2206   14.4563 C.ar    1  UNL1       -0.0030
     17 C          63.0293   82.2110   13.0394 C.ar    1  UNL1       -0.0221
     18 C          62.7827   80.9071   12.3400 C.3     1  UNL1        0.0310
     19 C          62.7835   83.5051   12.3220 C.ar    1  UNL1       -0.0073
     20 C          63.0300   84.8089   13.0215 C.ar    1  UNL1       -0.0087
     21 C          62.7842   86.1032   12.3041 C.3     1  UNL1        0.0323
     22 C          65.9540   92.0057   13.5626 C.3     1  UNL1        0.0659
     23 C          65.3466   92.6703   12.3628 C.3     1  UNL1        0.0080
     24 C          66.2284   93.1859   11.2644 C.3     1  UNL1        0.0004
     25 C          67.2227   92.2732   10.6100 C.3     1  UNL1        0.0000
     26 C          68.1044   92.7888    9.5116 C.3     1  UNL1        0.0000
     27 C          67.9919   94.2170    9.0675 C.3     1  UNL1        0.0000
     28 C          66.9976   95.1298    9.7219 C.3     1  UNL1        0.0000
     29 C          66.1158   94.6142   10.8203 C.3     1  UNL1        0.0000
@<TRIPOS>BOND
     1     6     7    1
     2     7     1    1
     3     1     2   ar
     4     2     8    1
     5     8     9    1
     6     9    10    1
     7    10    11    2
     8    10    12   am
     9    12    14    1
    10    14    15   ar
    11    15    16   ar
    12    16    17   ar
    13    17    18    1
    14    17    19   ar
    15    19    20   ar
    16    20    21    1
    17     2     3   ar
    18     3     4   ar
    19     4     5   ar
    20     5    22    1
    21    22    23    1
    22    23    24    1
    23    24    25    1
    24    25    26    1
    25    26    27    1
    26    27    28    1
    27    28    29    1
    28     5     1   ar
    29    29    24    1
    30    20    14   ar
    31    12    13    1
@<TRIPOS>MOLECULE
*****
 29 31 0 0 0
SMALL
GASTEIGER

@<TRIPOS>ATOM
      1 N          63.8377   90.5433   12.7591 N.ar    1  UNL1       -0.3021
      2 C          63.1543   89.2161   12.6128 C.ar    1  UNL1        0.1434
      3 N          63.6728   88.3066   13.6871 N.ar    1  UNL1       -0.1337
      4 N          64.6768   89.0717   14.4974 N.ar    1  UNL1       -0.1337
      5 C          64.7787   90.4541   13.9239 C.ar    1  UNL1        0.1429
      6 C          63.9524   91.6918   10.4316 C.3     1  UNL1        0.0266
      7 C          63.6187   91.7481   11.8929 C.3     1  UNL1        0.1084
      8 C          62.1317   88.8607   11.5744 C.3     1  UNL1        0.0754
      9 C          62.4195   87.7765   10.5786 C.3     1  UNL1        0.0933
     10 C          62.2107   86.3392   10.9535 C.2     1  UNL1        0.2266
     11 O          61.0587   85.5727   10.3742 O.2     1  UNL1       -0.2748
     12 N          63.1537   85.6683   11.9078 N.am    1  UNL1       -0.2842
     13 H          63.9098   86.1714   12.2880 H       1  UNL1        0.1548
     14 C          62.9449   84.2310   12.2826 C.ar    1  UNL1        0.0462
     15 C          62.3709   83.8814   13.6236 C.ar    1  UNL1        0.0140
     16 C          62.1620   82.4441   13.9984 C.ar    1  UNL1       -0.0030
     17 C          62.5272   81.3564   13.0323 C.ar    1  UNL1       -0.0221
     18 C          62.3183   79.9190   13.4071 C.3     1  UNL1        0.0310
     19 C          63.1012   81.7059   11.6913 C.ar    1  UNL1       -0.0073
     20 C          63.3101   83.1432   11.3165 C.ar    1  UNL1       -0.0087
     21 C          63.8841   83.4929    9.9754 C.3     1  UNL1        0.0323
     22 C          65.6659   91.5541   14.4269 C.3     1  UNL1        0.0659
     23 C          66.9508   91.8647   13.7179 C.3     1  UNL1        0.0080
     24 C          66.9326   92.6612   12.4470 C.3     1  UNL1        0.0004
     25 C          66.2937   94.0180   12.4214 C.3     1  UNL1        0.0000
     26 C          66.2755   94.8145   11.1505 C.3     1  UNL1        0.0000
     27 C          66.8962   94.2542    9.9052 C.3     1  UNL1        0.0000
     28 C          67.5351   92.8973    9.9309 C.3     1  UNL1        0.0000
     29 C          67.5533   92.1008   11.2018 C.3     1  UNL1        0.0000
@<TRIPOS>BOND
     1     6     7    1
     2     7     1    1
     3     1     2   ar
     4     2     8    1
     5     8     9    1
     6     9    10    1
     7    10    11    2
     8    10    12   am
     9    12    14    1
    10    14    15   ar
    11    15    16   ar
    12    16    17   ar
    13    17    18    1
    14    17    19   ar
    15    19    20   ar
    16    20    21    1
    17     2     3   ar
    18     3     4   ar
    19     4     5   ar
    20     5    22    1
    21    22    23    1
    22    23    24    1
    23    24    25    1
    24    25    26    1
    25    26    27    1
    26    27    28    1
    27    28    29    1
    28     5     1   ar
    29    29    24    1
    30    20    14   ar
    31    12    13    1
@<TRIPOS>MOLECULE
*****
 29 31 0 0 0
SMALL
GASTEIGER

@<TRIPOS>ATOM
      1 N          62.3382   90.3958   11.2711 N.ar    1  UNL1       -0.3021
      2 C          60.9147   89.9995   11.0127 C.ar    1  UNL1        0.1434
      3 N          60.3225   89.5276   12.3076 N.ar    1  UNL1       -0.1337
      4 N          61.3800   89.6323   13.3663 N.ar    1  UNL1       -0.1337
      5 C          62.6257   90.1689   12.7257 C.ar    1  UNL1        0.1429
      6 C          64.2717   92.0085   10.6306 C.3     1  UNL1        0.0266
      7 C          63.3044   90.9259   10.2536 C.3     1  UNL1        0.1084
      8 C          60.2076   90.0637    9.6914 C.3     1  UNL1        0.0754
      9 C          60.3408   88.9339    8.7137 C.3     1  UNL1        0.0933
     10 C          60.7373   87.5694    9.1940 C.2     1  UNL1        0.2266
     11 O          59.8168   86.4036    8.9843 O.2     1  UNL1       -0.2748
     12 N          62.0542   87.3704    9.8840 N.am    1  UNL1       -0.2842
     13 H          62.6583   88.1355   10.0217 H       1  UNL1        0.1548
     14 C          62.4507   86.0058   10.3643 C.ar    1  UNL1        0.0462
     15 C          62.3055   85.6494   11.8141 C.ar    1  UNL1        0.0140
     16 C          62.7020   84.2848   12.2943 C.ar    1  UNL1       -0.0030
     17 C          63.2436   83.2766   11.3247 C.ar    1  UNL1       -0.0221
     18 C          63.6401   81.9119   11.8050 C.3     1  UNL1        0.0310
     19 C          63.3888   83.6329    9.8749 C.ar    1  UNL1       -0.0073
     20 C          62.9924   84.9975    9.3947 C.ar    1  UNL1       -0.0087
     21 C          63.1375   85.3539    7.9449 C.3     1  UNL1        0.0323
     22 C          63.9300   90.4322   13.4182 C.3     1  UNL1        0.0659
     23 C          64.0575   90.1935   14.8936 C.3     1  UNL1        0.0080
     24 C          63.8584   88.8149   15.4502 C.3     1  UNL1        0.0004
     25 C          64.3956   87.6239   14.7136 C.3     1  UNL1        0.0000
     26 C          64.1964   86.2453   15.2702 C.3     1  UNL1        0.0000
     27 C          63.4601   86.0578   16.5635 C.3     1  UNL1        0.0000
     28 C          62.9229   87.2489   17.3001 C.3     1  UNL1        0.0000
     29 C          63.1220   88.6275   16.7435 C.3     1  UNL1        0.0000
@<TRIPOS>BOND
     1     6     7    1
     2     7     1    1
     3     1     2   ar
     4     2     8    1
     5     8     9    1
     6     9    10    1
     7    10    11    2
     8    10    12   am
     9    12    14    1
    10    14    15   ar
    11    15    16   ar
    12    16    17   ar
    13    17    18    1
    14    17    19   ar
    15    19    20   ar
    16    20    21    1
    17     2     3   ar
    18     3     4   ar
    19     4     5   ar
    20     5    22    1
    21    22    23    1
    22    23    24    1
    23    24    25    1
    24    25    26    1
    25    26    27    1
    26    27    28    1
    27    28    29    1
    28     5     1   ar
    29    29    24    1
    30    20    14   ar
    31    12    13    1
@<TRIPOS>MOLECULE
*****
 29 31 0 0 0
SMALL
GASTEIGER

@<TRIPOS>ATOM
      1 N          61.7377   86.5322    9.6090 N.ar    1  UNL1       -0.3021
      2 C          61.3986   87.7657   10.3923 C.ar    1  UNL1        0.1434
      3 N          61.9415   87.5973   11.7804 N.ar    1  UNL1       -0.1337
      4 N          62.6161   86.2596   11.8551 N.ar    1  UNL1       -0.1337
      5 C          62.4902   85.6013   10.5131 C.ar    1  UNL1        0.1429
      6 C          59.9503   86.1137    7.7706 C.3     1  UNL1        0.0266
      7 C          61.3861   86.2747    8.1737 C.3     1  UNL1        0.1084
      8 C          60.6483   88.9583    9.8776 C.3     1  UNL1        0.0754
      9 C          60.8304   90.2972   10.5290 C.3     1  UNL1        0.0933
     10 C          62.1922   90.7307   10.9845 C.2     1  UNL1        0.2266
     11 O          63.1699   91.2936    9.9959 O.2     1  UNL1       -0.2748
     12 N          62.5764   90.6012   12.4287 N.am    1  UNL1       -0.2842
     13 H          61.9347   90.2318   13.0776 H       1  UNL1        0.1548
     14 C          63.9382   91.0347   12.8843 C.ar    1  UNL1        0.0462
     15 C          64.6640   92.1224   12.1493 C.ar    1  UNL1        0.0140
     16 C          66.0258   92.5558   12.6049 C.ar    1  UNL1       -0.0030
     17 C          66.6618   91.9016   13.7954 C.ar    1  UNL1       -0.0221
     18 C          68.0237   92.3350   14.2509 C.3     1  UNL1        0.0310
     19 C          65.9361   90.8139   14.5303 C.ar    1  UNL1       -0.0073
     20 C          64.5743   90.3805   14.0748 C.ar    1  UNL1       -0.0087
     21 C          63.8485   89.2927   14.8098 C.3     1  UNL1        0.0323
     22 C          63.0232   84.2496   10.1407 C.3     1  UNL1        0.0659
     23 C          63.8604   83.4783   11.1175 C.3     1  UNL1        0.0080
     24 C          63.2024   82.5955   12.1361 C.3     1  UNL1        0.0004
     25 C          63.0074   81.1361   11.8498 C.3     1  UNL1        0.0000
     26 C          62.3494   80.2533   12.8684 C.3     1  UNL1        0.0000
     27 C          61.8863   80.8299   14.1734 C.3     1  UNL1        0.0000
     28 C          62.0813   82.2893   14.4597 C.3     1  UNL1        0.0000
     29 C          62.7393   83.1721   13.4411 C.3     1  UNL1        0.0000
@<TRIPOS>BOND
     1     6     7    1
     2     7     1    1
     3     1     2   ar
     4     2     8    1
     5     8     9    1
     6     9    10    1
     7    10    11    2
     8    10    12   am
     9    12    14    1
    10    14    15   ar
    11    15    16   ar
    12    16    17   ar
    13    17    18    1
    14    17    19   ar
    15    19    20   ar
    16    20    21    1
    17     2     3   ar
    18     3     4   ar
    19     4     5   ar
    20     5    22    1
    21    22    23    1
    22    23    24    1
    23    24    25    1
    24    25    26    1
    25    26    27    1
    26    27    28    1
    27    28    29    1
    28     5     1   ar
    29    29    24    1
    30    20    14   ar
    31    12    13    1
@<TRIPOS>MOLECULE
*****
 29 31 0 0 0
SMALL
GASTEIGER

@<TRIPOS>ATOM
      1 N          61.9987   87.8545   10.6584 N.ar    1  UNL1       -0.3021
      2 C          62.4627   88.9989   11.5099 C.ar    1  UNL1        0.1434
      3 N          63.1536   88.4305   12.7139 N.ar    1  UNL1       -0.1337
      4 N          63.1165   86.9348   12.6067 N.ar    1  UNL1       -0.1337
      5 C          62.4028   86.5787   11.3363 C.ar    1  UNL1        0.1429
      6 C          59.8231   87.5448    9.2725 C.3     1  UNL1        0.0266
      7 C          61.2602   87.9660    9.3576 C.3     1  UNL1        0.1084
      8 C          62.2697   90.4559   11.2099 C.3     1  UNL1        0.0754
      9 C          63.3948   91.2564   10.6240 C.3     1  UNL1        0.0933
     10 C          64.4689   91.8049   11.5159 C.2     1  UNL1        0.2266
     11 O          65.1953   93.0596   11.1309 O.2     1  UNL1       -0.2748
     12 N          64.8167   91.0987   12.7927 N.am    1  UNL1       -0.2842
     13 H          64.3400   90.2752   13.0454 H       1  UNL1        0.1548
     14 C          65.8909   91.6472   13.6846 C.ar    1  UNL1        0.0462
     15 C          67.2434   91.9667   13.1205 C.ar    1  UNL1        0.0140
     16 C          68.3175   92.5152   14.0123 C.ar    1  UNL1       -0.0030
     17 C          68.0390   92.7442   15.4683 C.ar    1  UNL1       -0.0221
     18 C          69.1132   93.2927   16.3602 C.3     1  UNL1        0.0310
     19 C          66.6864   92.4247   16.0325 C.ar    1  UNL1       -0.0073
     20 C          65.6123   91.8762   15.1406 C.ar    1  UNL1       -0.0087
     21 C          64.2596   91.5566   15.7048 C.3     1  UNL1        0.0323
     22 C          62.1394   85.1907   10.8323 C.3     1  UNL1        0.0659
     23 C          63.1522   84.1070   11.0553 C.3     1  UNL1        0.0080
     24 C          62.8627   82.9972   12.0219 C.3     1  UNL1        0.0004
     25 C          62.9517   81.5690   11.5726 C.3     1  UNL1        0.0000
     26 C          62.6622   80.4592   12.5393 C.3     1  UNL1        0.0000
     27 C          62.2836   80.7777   13.9553 C.3     1  UNL1        0.0000
     28 C          62.1945   82.2060   14.4047 C.3     1  UNL1        0.0000
     29 C          62.4841   83.3158   13.4380 C.3     1  UNL1        0.0000
@<TRIPOS>BOND
     1     6     7    1
     2     7     1    1
     3     1     2   ar
     4     2     8    1
     5     8     9    1
     6     9    10    1
     7    10    11    2
     8    10    12   am
     9    12    14    1
    10    14    15   ar
    11    15    16   ar
    12    16    17   ar
    13    17    18    1
    14    17    19   ar
    15    19    20   ar
    16    20    21    1
    17     2     3   ar
    18     3     4   ar
    19     4     5   ar
    20     5    22    1
    21    22    23    1
    22    23    24    1
    23    24    25    1
    24    25    26    1
    25    26    27    1
    26    27    28    1
    27    28    29    1
    28     5     1   ar
    29    29    24    1
    30    20    14   ar
    31    12    13    1
@<TRIPOS>MOLECULE
*****
 29 31 0 0 0
SMALL
GASTEIGER

@<TRIPOS>ATOM
      1 N          61.8787   85.8237    9.3972 N.ar    1  UNL1       -0.3021
      2 C          60.9293   86.7979   10.0294 C.ar    1  UNL1        0.1434
      3 N          61.0336   86.6473   11.5181 N.ar    1  UNL1       -0.1337
      4 N          62.0475   85.5801   11.8062 N.ar    1  UNL1       -0.1337
      5 C          62.5699   85.0711   10.4954 C.ar    1  UNL1        0.1429
      6 C          60.9914   85.1046    7.0637 C.3     1  UNL1        0.0266
      7 C          62.0985   85.6353    7.9255 C.3     1  UNL1        0.1084
      8 C          60.0329   87.7546    9.3005 C.3     1  UNL1        0.0754
      9 C          60.2894   89.2305    9.3788 C.3     1  UNL1        0.0933
     10 C          61.1052   89.7911   10.5057 C.2     1  UNL1        0.2266
     11 O          60.4661   90.6974   11.5159 O.2     1  UNL1       -0.2748
     12 N          62.5602   89.4456   10.6226 N.am    1  UNL1       -0.2842
     13 H          62.9797   88.8508    9.9596 H       1  UNL1        0.1548
     14 C          63.3761   90.0064   11.7495 C.ar    1  UNL1        0.0462
     15 C          63.4810   89.2570   13.0447 C.ar    1  UNL1        0.0140
     16 C          64.2969   89.8178   14.1716 C.ar    1  UNL1       -0.0030
     17 C          65.0078   91.1278   14.0033 C.ar    1  UNL1       -0.0221
     18 C          65.8237   91.6886   15.1303 C.3     1  UNL1        0.0310
     19 C          64.9029   91.8772   12.7081 C.ar    1  UNL1       -0.0073
     20 C          64.0871   91.3164   11.5813 C.ar    1  UNL1       -0.0087
     21 C          63.9821   92.0657   10.2860 C.3     1  UNL1        0.0323
     22 C          63.6021   83.9979   10.3146 C.3     1  UNL1        0.0659
     23 C          64.2142   83.3362   11.5136 C.3     1  UNL1        0.0080
     24 C          63.3808   82.4438   12.3849 C.3     1  UNL1        0.0004
     25 C          63.1221   81.0244   11.9747 C.3     1  UNL1        0.0000
     26 C          62.2888   80.1320   12.8460 C.3     1  UNL1        0.0000
     27 C          61.7141   80.6590   14.1273 C.3     1  UNL1        0.0000
     28 C          61.9727   82.0784   14.5375 C.3     1  UNL1        0.0000
     29 C          62.8061   82.9709   13.6662 C.3     1  UNL1        0.0000
@<TRIPOS>BOND
     1     6     7    1
     2     7     1    1
     3     1     2   ar
     4     2     8    1
     5     8     9    1
     6     9    10    1
     7    10    11    2
     8    10    12   am
     9    12    14    1
    10    14    15   ar
    11    15    16   ar
    12    16    17   ar
    13    17    18    1
    14    17    19   ar
    15    19    20   ar
    16    20    21    1
    17     2     3   ar
    18     3     4   ar
    19     4     5   ar
    20     5    22    1
    21    22    23    1
    22    23    24    1
    23    24    25    1
    24    25    26    1
    25    26    27    1
    26    27    28    1
    27    28    29    1
    28     5     1   ar
    29    29    24    1
    30    20    14   ar
    31    12    13    1
@<TRIPOS>MOLECULE
*****
 29 31 0 0 0
SMALL
GASTEIGER

@<TRIPOS>ATOM
      1 N          62.2213   85.3317   10.2987 N.ar    1  UNL1       -0.3021
      2 C          61.3026   86.1345    9.4261 C.ar    1  UNL1        0.1434
      3 N          61.7117   85.9179    7.9993 N.ar    1  UNL1       -0.1337
      4 N          62.8833   84.9813    7.9900 N.ar    1  UNL1       -0.1337
      5 C          63.1983   84.6190    9.4112 C.ar    1  UNL1        0.1429
      6 C          63.1880   85.9904   12.6185 C.3     1  UNL1        0.0266
      7 C          62.1719   85.2551   11.7959 C.3     1  UNL1        0.1084
      8 C          60.1730   87.0016    9.8975 C.3     1  UNL1        0.0754
      9 C          60.3378   88.4920    9.9375 C.3     1  UNL1        0.0933
     10 C          61.1535   89.1275   11.0241 C.2     1  UNL1        0.2266
     11 O          60.4867   89.6081   12.2789 O.2     1  UNL1       -0.2748
     12 N          62.6359   89.2824   10.8559 N.am    1  UNL1       -0.2842
     13 H          63.0736   88.9670   10.0323 H       1  UNL1        0.1548
     14 C          63.4516   89.9180   11.9426 C.ar    1  UNL1        0.0462
     15 C          63.6299   89.2148   13.2554 C.ar    1  UNL1        0.0140
     16 C          64.4455   89.8503   14.3420 C.ar    1  UNL1       -0.0030
     17 C          65.0830   91.1892   14.1157 C.ar    1  UNL1       -0.0221
     18 C          65.8987   91.8248   15.2024 C.3     1  UNL1        0.0310
     19 C          64.9047   91.8924   12.8029 C.ar    1  UNL1       -0.0073
     20 C          64.0890   91.2569   11.7163 C.ar    1  UNL1       -0.0087
     21 C          63.9108   91.9601   10.4033 C.3     1  UNL1        0.0323
     22 C          64.2973   83.7046    9.8651 C.3     1  UNL1        0.0659
     23 C          63.9685   82.3346   10.3798 C.3     1  UNL1        0.0080
     24 C          63.4900   82.1582   11.7904 C.3     1  UNL1        0.0004
     25 C          62.2137   81.4188   12.0625 C.3     1  UNL1        0.0000
     26 C          61.7352   81.2425   13.4732 C.3     1  UNL1        0.0000
     27 C          62.5329   81.8056   14.6117 C.3     1  UNL1        0.0000
     28 C          63.8093   82.5451   14.3396 C.3     1  UNL1        0.0000
     29 C          64.2878   82.7214   12.9289 C.3     1  UNL1        0.0000
@<TRIPOS>BOND
     1     6     7    1
     2     7     1    1
     3     1     2   ar
     4     2     8    1
     5     8     9    1
     6     9    10    1
     7    10    11    2
     8    10    12   am
     9    12    14    1
    10    14    15   ar
    11    15    16   ar
    12    16    17   ar
    13    17    18    1
    14    17    19   ar
    15    19    20   ar
    16    20    21    1
    17     2     3   ar
    18     3     4   ar
    19     4     5   ar
    20     5    22    1
    21    22    23    1
    22    23    24    1
    23    24    25    1
    24    25    26    1
    25    26    27    1
    26    27    28    1
    27    28    29    1
    28     5     1   ar
    29    29    24    1
    30    20    14   ar
    31    12    13    1
