@<TRIPOS>MOLECULE
*****
 35 37 0 0 0
SMALL
GASTEIGER

@<TRIPOS>ATOM
      1 C          63.7315   88.3963   13.8264 C.3     1  UNL1        0.0310
      2 C          63.4687   89.1891   12.5804 C.ar    1  UNL1       -0.0163
      3 C          62.5114   88.6698   11.5490 C.ar    1  UNL1        0.0544
      4 C          62.2486   89.4626   10.3030 C.ar    1  UNL1        0.3417
      5 O          61.2912   88.9432    9.2716 O.2     1  UNL1       -0.2448
      6 O          62.9432   90.7746   10.0884 O.2     1  UNL1       -0.4212
      7 C          63.9006   91.2940   11.1198 C.ar    1  UNL1        0.1515
      8 C          64.5951   92.6060   10.9052 C.ar    1  UNL1        0.0775
      9 C          65.5525   93.1253   11.9366 C.ar    1  UNL1        0.1803
     10 C          65.8152   92.3325   13.1826 C.ar    1  UNL1        0.1747
     11 F          66.7726   92.8519   14.2140 F       1  UNL1       -0.2009
     12 C          65.1207   91.0205   13.3972 C.ar    1  UNL1        0.0355
     13 C          64.1633   90.5012   12.3658 C.ar    1  UNL1        0.0331
     14 C          61.8168   87.3577   11.7636 C.3     1  UNL1        0.0612
     15 C          62.4461   86.0871   11.2743 C.ar    1  UNL1        0.0111
     16 C          62.5878   85.8389    9.8018 C.ar    1  UNL1       -0.0016
     17 C          63.2172   84.5683    9.3125 C.ar    1  UNL1        0.0011
     18 C          63.7049   83.5458   10.2957 C.ar    1  UNL1        0.0181
     19 C          63.5631   83.7940   11.7683 C.ar    1  UNL1        0.0928
     20 C          62.9338   85.0647   12.2575 C.ar    1  UNL1        0.1509
     21 F          62.7920   85.3128   13.7301 F       1  UNL1       -0.2031
     22 N          64.0508   82.7716   12.7515 N.pl3   1  UNL1       -0.2034
     23 H          65.0027   82.5211   12.7700 H       1  UNL1        0.1749
     24 S          63.0880   82.1307   13.7066 S.O2    1  UNL1        0.1068
     25 N          62.1252   81.4898   14.6619 N.3     1  UNL1       -0.1906
     26 O          62.2897   81.6063   12.5501 O.2     1  UNL1       -0.1383
     27 O          63.8864   82.6550   14.8632 O.2     1  UNL1       -0.1383
     28 H          61.3951   81.0083   14.1369 H       1  UNL1        0.1456
     29 H          61.7032   82.2070   15.2516 H       1  UNL1        0.1456
     30 O          66.2471   94.4374   11.7221 O.3     1  UNL1       -0.4077
     31 C          66.8527   94.7559   10.3873 C.2     1  UNL1        0.4096
     32 O          68.0702   94.0146    9.9200 O.2     1  UNL1       -0.2258
     33 N          66.2410   95.8156    9.5197 N.am    1  UNL1       -0.2422
     34 C          66.8467   96.1341    8.1849 C.3     1  UNL1        0.1184
     35 C          65.0235   96.5569    9.9870 C.3     1  UNL1        0.1184
@<TRIPOS>BOND
     1     1     2    1
     2     2     3   ar
     3     3    14    1
     4    14    15    1
     5    15    16   ar
     6    16    17   ar
     7    17    18   ar
     8    18    19   ar
     9    19    22    1
    10    22    24    1
    11    24    25    1
    12    24    26    2
    13    24    27    2
    14    19    20   ar
    15    20    21    1
    16     3     4   ar
    17     4     5    2
    18     4     6   ar
    19     6     7   ar
    20     7     8   ar
    21     8     9   ar
    22     9    30    1
    23    30    31    1
    24    31    32    2
    25    31    33   am
    26    33    34    1
    27    33    35    1
    28     9    10   ar
    29    10    11    1
    30    10    12   ar
    31    12    13   ar
    32    13     2   ar
    33    20    15   ar
    34    13     7   ar
    35    22    23    1
    36    25    28    1
    37    25    29    1
@<TRIPOS>MOLECULE
*****
 35 37 0 0 0
SMALL
GASTEIGER

@<TRIPOS>ATOM
      1 C          64.5611   89.1636   14.8432 C.3     1  UNL1        0.0310
      2 C          63.8402   88.5172   13.6976 C.ar    1  UNL1       -0.0163
      3 C          63.1284   89.3647   12.6852 C.ar    1  UNL1        0.0544
      4 C          62.4074   88.7182   11.5397 C.ar    1  UNL1        0.3417
      5 O          61.6956   89.5659   10.5273 O.2     1  UNL1       -0.2448
      6 O          62.3983   87.2242   11.4065 O.2     1  UNL1       -0.4212
      7 C          63.1101   86.3766   12.4189 C.ar    1  UNL1        0.1515
      8 C          63.1009   84.8826   12.2858 C.ar    1  UNL1        0.0775
      9 C          63.8127   84.0350   13.2982 C.ar    1  UNL1        0.1803
     10 C          64.5337   84.6815   14.4437 C.ar    1  UNL1        0.1747
     11 F          65.2455   83.8339   15.4561 F       1  UNL1       -0.2009
     12 C          64.5429   86.1755   14.5769 C.ar    1  UNL1        0.0355
     13 C          63.8311   87.0231   13.5645 C.ar    1  UNL1        0.0331
     14 C          63.1375   90.8588   12.8184 C.3     1  UNL1        0.0612
     15 C          64.3140   91.6485   12.3262 C.ar    1  UNL1        0.0111
     16 C          64.5236   91.8432   10.8537 C.ar    1  UNL1       -0.0016
     17 C          65.7000   92.6328   10.3615 C.ar    1  UNL1        0.0011
     18 C          66.6671   93.2278   11.3418 C.ar    1  UNL1        0.0181
     19 C          66.4575   93.0331   12.8143 C.ar    1  UNL1        0.0928
     20 C          65.2809   92.2434   13.3065 C.ar    1  UNL1        0.1509
     21 F          65.0714   92.0487   14.7790 F       1  UNL1       -0.2031
     22 N          67.4244   93.6281   13.7946 N.pl3   1  UNL1       -0.2034
     23 H          67.5713   94.6014   13.8123 H       1  UNL1        0.1749
     24 S          68.1677   92.7400   14.7480 S.O2    1  UNL1        0.1068
     25 N          68.9110   91.8519   15.7013 N.3     1  UNL1       -0.1906
     26 O          67.4998   93.4227   15.9046 O.2     1  UNL1       -0.1383
     27 O          68.8357   92.0574   13.5913 O.2     1  UNL1       -0.1383
     28 H          68.6513   92.0883   16.6590 H       1  UNL1        0.1456
     29 H          69.9147   91.9858   15.5784 H       1  UNL1        0.1456
     30 O          63.8036   82.5409   13.1650 O.3     1  UNL1       -0.4077
     31 C          63.7876   81.9093   11.8046 C.2     1  UNL1        0.4096
     32 O          64.5382   82.5465   10.6729 O.2     1  UNL1       -0.2258
     33 N          63.0210   80.6405   11.5758 N.am    1  UNL1       -0.2422
     34 C          63.0049   80.0088   10.2153 C.3     1  UNL1        0.1184
     35 C          62.2704   80.0032   12.7074 C.3     1  UNL1        0.1184
@<TRIPOS>BOND
     1     1     2    1
     2     2     3   ar
     3     3    14    1
     4    14    15    1
     5    15    16   ar
     6    16    17   ar
     7    17    18   ar
     8    18    19   ar
     9    19    22    1
    10    22    24    1
    11    24    25    1
    12    24    26    2
    13    24    27    2
    14    19    20   ar
    15    20    21    1
    16     3     4   ar
    17     4     5    2
    18     4     6   ar
    19     6     7   ar
    20     7     8   ar
    21     8     9   ar
    22     9    30    1
    23    30    31    1
    24    31    32    2
    25    31    33   am
    26    33    34    1
    27    33    35    1
    28     9    10   ar
    29    10    11    1
    30    10    12   ar
    31    12    13   ar
    32    13     2   ar
    33    20    15   ar
    34    13     7   ar
    35    22    23    1
    36    25    28    1
    37    25    29    1
@<TRIPOS>MOLECULE
*****
 35 37 0 0 0
SMALL
GASTEIGER

@<TRIPOS>ATOM
      1 C          64.4318   89.1668   14.9433 C.3     1  UNL1        0.0310
      2 C          63.8206   88.5097   13.7414 C.ar    1  UNL1       -0.0163
      3 C          63.2326   89.3487   12.6458 C.ar    1  UNL1        0.0544
      4 C          62.6214   88.6916   11.4438 C.ar    1  UNL1        0.3417
      5 O          62.0333   89.5306   10.3482 O.2     1  UNL1       -0.2448
      6 O          62.5982   87.1956   11.3375 O.2     1  UNL1       -0.4212
      7 C          63.1862   86.3566   12.4331 C.ar    1  UNL1        0.1515
      8 C          63.1631   84.8605   12.3267 C.ar    1  UNL1        0.0775
      9 C          63.7511   84.0216   13.4223 C.ar    1  UNL1        0.1803
     10 C          64.3623   84.6787   14.6243 C.ar    1  UNL1        0.1747
     11 F          64.9503   83.8397   15.7199 F       1  UNL1       -0.2009
     12 C          64.3855   86.1747   14.7307 C.ar    1  UNL1        0.0355
     13 C          63.7974   87.0136   13.6351 C.ar    1  UNL1        0.0331
     14 C          63.2557   90.8448   12.7521 C.3     1  UNL1        0.0612
     15 C          64.5270   91.5958   12.4883 C.ar    1  UNL1        0.0111
     16 C          65.5644   91.7159   13.5651 C.ar    1  UNL1       -0.0016
     17 C          66.8358   92.4670   13.3012 C.ar    1  UNL1        0.0011
     18 C          67.0697   93.0980   11.9606 C.ar    1  UNL1        0.0181
     19 C          66.0323   92.9779   10.8839 C.ar    1  UNL1        0.0928
     20 C          64.7610   92.2268   11.1477 C.ar    1  UNL1        0.1509
     21 F          63.7236   92.1067   10.0710 F       1  UNL1       -0.2031
     22 N          66.2663   93.6088    9.5433 N.pl3   1  UNL1       -0.2034
     23 H          65.9775   93.1455    8.7241 H       1  UNL1        0.1749
     24 S          66.9401   94.9457    9.4510 S.O2    1  UNL1        0.1068
     25 N          67.6140   96.2827    9.3587 N.3     1  UNL1       -0.1906
     26 O          68.1702   94.2876    8.8998 O.2     1  UNL1       -0.1383
     27 O          65.7101   95.6038   10.0022 O.2     1  UNL1       -0.1383
     28 H          68.5554   96.1638    8.9844 H       1  UNL1        0.1456
     29 H          67.6677   96.7012   10.2873 H       1  UNL1        0.1456
     30 O          63.7279   82.5255   13.3160 O.3     1  UNL1       -0.4077
     31 C          63.7370   81.8693   11.9672 C.2     1  UNL1        0.4096
     32 O          64.5088   82.4859   10.8383 O.2     1  UNL1       -0.2258
     33 N          62.9745   80.5965   11.7473 N.am    1  UNL1       -0.2422
     34 C          62.9836   79.9402   10.3985 C.3     1  UNL1        0.1184
     35 C          62.2028   79.9798   12.8761 C.3     1  UNL1        0.1184
@<TRIPOS>BOND
     1     1     2    1
     2     2     3   ar
     3     3    14    1
     4    14    15    1
     5    15    16   ar
     6    16    17   ar
     7    17    18   ar
     8    18    19   ar
     9    19    22    1
    10    22    24    1
    11    24    25    1
    12    24    26    2
    13    24    27    2
    14    19    20   ar
    15    20    21    1
    16     3     4   ar
    17     4     5    2
    18     4     6   ar
    19     6     7   ar
    20     7     8   ar
    21     8     9   ar
    22     9    30    1
    23    30    31    1
    24    31    32    2
    25    31    33   am
    26    33    34    1
    27    33    35    1
    28     9    10   ar
    29    10    11    1
    30    10    12   ar
    31    12    13   ar
    32    13     2   ar
    33    20    15   ar
    34    13     7   ar
    35    22    23    1
    36    25    28    1
    37    25    29    1
@<TRIPOS>MOLECULE
*****
 35 37 0 0 0
SMALL
GASTEIGER

@<TRIPOS>ATOM
      1 C          62.2921   88.5371   10.7627 C.3     1  UNL1        0.0310
      2 C          62.9262   88.0482   12.0311 C.ar    1  UNL1       -0.0163
      3 C          63.2958   89.0235   13.1091 C.ar    1  UNL1        0.0544
      4 C          63.9298   88.5346   14.3776 C.ar    1  UNL1        0.3417
      5 O          64.2995   89.5100   15.4557 O.2     1  UNL1       -0.2448
      6 O          64.1943   87.0705   14.5680 O.2     1  UNL1       -0.4212
      7 C          63.8246   86.0951   13.4900 C.ar    1  UNL1        0.1515
      8 C          64.0891   84.6310   13.6804 C.ar    1  UNL1        0.0775
      9 C          63.7194   83.6557   12.6024 C.ar    1  UNL1        0.1803
     10 C          63.0854   84.1446   11.3339 C.ar    1  UNL1        0.1747
     11 F          62.7158   83.1692   10.2559 F       1  UNL1       -0.2009
     12 C          62.8210   85.6087   11.1435 C.ar    1  UNL1        0.0355
     13 C          63.1906   86.5840   12.2215 C.ar    1  UNL1        0.0331
     14 C          63.0314   90.4877   12.9187 C.3     1  UNL1        0.0612
     15 C          64.1143   91.3835   12.3944 C.ar    1  UNL1        0.0111
     16 C          64.2377   91.6268   10.9195 C.ar    1  UNL1       -0.0016
     17 C          65.3206   92.5226   10.3951 C.ar    1  UNL1        0.0011
     18 C          66.2801   93.1750   11.3458 C.ar    1  UNL1        0.0181
     19 C          66.1567   92.9316   12.8208 C.ar    1  UNL1        0.0928
     20 C          65.0737   92.0358   13.3451 C.ar    1  UNL1        0.1509
     21 F          64.9503   91.7925   14.8201 F       1  UNL1       -0.2031
     22 N          67.1162   93.5840   13.7714 N.pl3   1  UNL1       -0.2034
     23 H          67.1736   94.5658   13.8165 H       1  UNL1        0.1749
     24 S          67.9881   92.7404   14.6535 S.O2    1  UNL1        0.1068
     25 N          68.8602   91.8969   15.5356 N.3     1  UNL1       -0.1906
     26 O          67.3960   93.3960   15.8658 O.2     1  UNL1       -0.1383
     27 O          68.5803   92.0849   13.4413 O.2     1  UNL1       -0.1383
     28 H          68.6782   92.1259   16.5127 H       1  UNL1        0.1456
     29 H          69.8402   92.0802   15.3202 H       1  UNL1        0.1456
     30 O          63.9839   82.1915   12.7928 O.3     1  UNL1       -0.4077
     31 C          62.8375   81.2350   12.9378 C.2     1  UNL1        0.4096
     32 O          62.7243   80.0551   12.0185 O.2     1  UNL1       -0.2258
     33 N          61.8045   81.4583   14.0022 N.am    1  UNL1       -0.2422
     34 C          60.6581   80.5019   14.1472 C.3     1  UNL1        0.1184
     35 C          61.9177   82.6382   14.9216 C.3     1  UNL1        0.1184
@<TRIPOS>BOND
     1     1     2    1
     2     2     3   ar
     3     3    14    1
     4    14    15    1
     5    15    16   ar
     6    16    17   ar
     7    17    18   ar
     8    18    19   ar
     9    19    22    1
    10    22    24    1
    11    24    25    1
    12    24    26    2
    13    24    27    2
    14    19    20   ar
    15    20    21    1
    16     3     4   ar
    17     4     5    2
    18     4     6   ar
    19     6     7   ar
    20     7     8   ar
    21     8     9   ar
    22     9    30    1
    23    30    31    1
    24    31    32    2
    25    31    33   am
    26    33    34    1
    27    33    35    1
    28     9    10   ar
    29    10    11    1
    30    10    12   ar
    31    12    13   ar
    32    13     2   ar
    33    20    15   ar
    34    13     7   ar
    35    22    23    1
    36    25    28    1
    37    25    29    1
@<TRIPOS>MOLECULE
*****
 35 37 0 0 0
SMALL
GASTEIGER

@<TRIPOS>ATOM
      1 C          62.2353   89.9173   10.5427 C.3     1  UNL1        0.0310
      2 C          62.7581   89.0516   11.6505 C.ar    1  UNL1       -0.0163
      3 C          63.3736   89.6792   12.8659 C.ar    1  UNL1        0.0544
      4 C          63.8964   88.8135   13.9738 C.ar    1  UNL1        0.3417
      5 O          64.5119   89.4411   15.1892 O.2     1  UNL1       -0.2448
      6 O          63.8037   87.3203   13.8662 O.2     1  UNL1       -0.4212
      7 C          63.1882   86.6926   12.6507 C.ar    1  UNL1        0.1515
      8 C          63.0956   85.1994   12.5431 C.ar    1  UNL1        0.0775
      9 C          62.4801   84.5718   11.3277 C.ar    1  UNL1        0.1803
     10 C          61.9573   85.4375   10.2199 C.ar    1  UNL1        0.1747
     11 F          61.3418   84.8098    9.0044 F       1  UNL1       -0.2009
     12 C          62.0499   86.9307   10.3275 C.ar    1  UNL1        0.0355
     13 C          62.6654   87.5583   11.5429 C.ar    1  UNL1        0.0331
     14 C          63.4663   91.1725   12.9736 C.3     1  UNL1        0.0612
     15 C          64.7607   91.8673   12.6711 C.ar    1  UNL1        0.0111
     16 C          65.8105   91.9939   13.7350 C.ar    1  UNL1       -0.0016
     17 C          67.1050   92.6887   13.4324 C.ar    1  UNL1        0.0011
     18 C          67.3497   93.2570   12.0659 C.ar    1  UNL1        0.0181
     19 C          66.2999   93.1305   11.0020 C.ar    1  UNL1        0.0928
     20 C          65.0054   92.4356   11.3046 C.ar    1  UNL1        0.1509
     21 F          63.9555   92.3090   10.2407 F       1  UNL1       -0.2031
     22 N          66.5445   93.6987    9.6356 N.pl3   1  UNL1       -0.2034
     23 H          66.3172   93.1720    8.8355 H       1  UNL1        0.1749
     24 S          67.1354   95.0695    9.4882 S.O2    1  UNL1        0.1068
     25 N          67.7264   96.4403    9.3409 N.3     1  UNL1       -0.1906
     26 O          68.4854   94.4616    9.2476 O.2     1  UNL1       -0.1383
     27 O          65.7854   95.6774    9.7289 O.2     1  UNL1       -0.1383
     28 H          68.7258   96.3614    9.1532 H       1  UNL1        0.1456
     29 H          67.5828   96.9669   10.2026 H       1  UNL1        0.1456
     30 O          62.3874   83.0785   11.2201 O.3     1  UNL1       -0.4077
     31 C          63.3695   82.2115   11.9507 C.2     1  UNL1        0.4096
     32 O          64.7971   82.1468   11.4948 O.2     1  UNL1       -0.2258
     33 N          62.9240   81.4092   13.1372 N.am    1  UNL1       -0.2422
     34 C          63.9061   80.5422   13.8679 C.3     1  UNL1        0.1184
     35 C          61.4964   81.4739   13.5931 C.3     1  UNL1        0.1184
@<TRIPOS>BOND
     1     1     2    1
     2     2     3   ar
     3     3    14    1
     4    14    15    1
     5    15    16   ar
     6    16    17   ar
     7    17    18   ar
     8    18    19   ar
     9    19    22    1
    10    22    24    1
    11    24    25    1
    12    24    26    2
    13    24    27    2
    14    19    20   ar
    15    20    21    1
    16     3     4   ar
    17     4     5    2
    18     4     6   ar
    19     6     7   ar
    20     7     8   ar
    21     8     9   ar
    22     9    30    1
    23    30    31    1
    24    31    32    2
    25    31    33   am
    26    33    34    1
    27    33    35    1
    28     9    10   ar
    29    10    11    1
    30    10    12   ar
    31    12    13   ar
    32    13     2   ar
    33    20    15   ar
    34    13     7   ar
    35    22    23    1
    36    25    28    1
    37    25    29    1
@<TRIPOS>MOLECULE
*****
 35 37 0 0 0
SMALL
GASTEIGER

@<TRIPOS>ATOM
      1 C          64.2320   89.4569   15.0035 C.3     1  UNL1        0.0310
      2 C          64.0509   89.9301   13.5916 C.ar    1  UNL1       -0.0163
      3 C          63.1716   89.1618   12.6501 C.ar    1  UNL1        0.0544
      4 C          62.9905   89.6349   11.2382 C.ar    1  UNL1        0.3417
      5 O          62.1112   88.8666   10.2967 O.2     1  UNL1       -0.2448
      6 O          63.6887   90.8764   10.7679 O.2     1  UNL1       -0.4212
      7 C          64.5681   91.6448   11.7095 C.ar    1  UNL1        0.1515
      8 C          65.2662   92.8863   11.2392 C.ar    1  UNL1        0.0775
      9 C          66.1455   93.6546   12.1807 C.ar    1  UNL1        0.1803
     10 C          66.3266   93.1814   13.5926 C.ar    1  UNL1        0.1747
     11 F          67.2059   93.9498   14.5342 F       1  UNL1       -0.2009
     12 C          65.6284   91.9399   14.0629 C.ar    1  UNL1        0.0355
     13 C          64.7491   91.1716   13.1213 C.ar    1  UNL1        0.0331
     14 C          62.4734   87.9202   13.1204 C.3     1  UNL1        0.0612
     15 C          63.2054   86.6112   13.1438 C.ar    1  UNL1        0.0111
     16 C          64.2974   86.3804   14.1460 C.ar    1  UNL1       -0.0016
     17 C          65.0294   85.0714   14.1694 C.ar    1  UNL1        0.0011
     18 C          64.6696   83.9932   13.1906 C.ar    1  UNL1        0.0181
     19 C          63.5776   84.2240   12.1884 C.ar    1  UNL1        0.0928
     20 C          62.8456   85.5331   12.1650 C.ar    1  UNL1        0.1509
     21 F          61.7536   85.7639   11.1629 F       1  UNL1       -0.2031
     22 N          63.2178   83.1459   11.2097 N.pl3   1  UNL1       -0.2034
     23 H          63.1379   83.3575   10.2515 H       1  UNL1        0.1749
     24 S          62.9796   81.7452   11.6908 S.O2    1  UNL1        0.1068
     25 N          62.7413   80.3446   12.1720 N.3     1  UNL1       -0.1906
     26 O          63.8492   81.2185   10.5880 O.2     1  UNL1       -0.1383
     27 O          62.1099   82.2719   12.7936 O.2     1  UNL1       -0.1383
     28 H          63.2449   79.6894   11.5740 H       1  UNL1        0.1456
     29 H          61.7430   80.1383   12.1372 H       1  UNL1        0.1456
     30 O          66.8437   94.8961   11.7105 O.3     1  UNL1       -0.4077
     31 C          66.3546   95.6141   10.4877 C.2     1  UNL1        0.4096
     32 O          65.2426   96.6146   10.5999 O.2     1  UNL1       -0.2258
     33 N          66.9774   95.3317    9.1527 N.am    1  UNL1       -0.2422
     34 C          66.4883   96.0497    7.9299 C.3     1  UNL1        0.1184
     35 C          68.0894   94.3312    9.0404 C.3     1  UNL1        0.1184
@<TRIPOS>BOND
     1     1     2    1
     2     2     3   ar
     3     3    14    1
     4    14    15    1
     5    15    16   ar
     6    16    17   ar
     7    17    18   ar
     8    18    19   ar
     9    19    22    1
    10    22    24    1
    11    24    25    1
    12    24    26    2
    13    24    27    2
    14    19    20   ar
    15    20    21    1
    16     3     4   ar
    17     4     5    2
    18     4     6   ar
    19     6     7   ar
    20     7     8   ar
    21     8     9   ar
    22     9    30    1
    23    30    31    1
    24    31    32    2
    25    31    33   am
    26    33    34    1
    27    33    35    1
    28     9    10   ar
    29    10    11    1
    30    10    12   ar
    31    12    13   ar
    32    13     2   ar
    33    20    15   ar
    34    13     7   ar
    35    22    23    1
    36    25    28    1
    37    25    29    1
@<TRIPOS>MOLECULE
*****
 35 37 0 0 0
SMALL
GASTEIGER

@<TRIPOS>ATOM
      1 C          63.3605   88.6611   11.9977 C.3     1  UNL1        0.0310
      2 C          63.4092   88.2553   13.4410 C.ar    1  UNL1       -0.0163
      3 C          63.4518   89.3030   14.5136 C.ar    1  UNL1        0.0544
      4 C          63.5005   88.8972   15.9568 C.ar    1  UNL1        0.3417
      5 O          63.5431   89.9449   17.0295 O.2     1  UNL1       -0.2448
      6 O          63.5065   87.4437   16.3275 O.2     1  UNL1       -0.4212
      7 C          63.4639   86.3960   15.2548 C.ar    1  UNL1        0.1515
      8 C          63.4700   84.9425   15.6254 C.ar    1  UNL1        0.0775
      9 C          63.4274   83.8949   14.5528 C.ar    1  UNL1        0.1803
     10 C          63.3787   84.3007   13.1095 C.ar    1  UNL1        0.1747
     11 F          63.3361   83.2530   12.0369 F       1  UNL1       -0.2009
     12 C          63.3726   85.7541   12.7389 C.ar    1  UNL1        0.0355
     13 C          63.4152   86.8018   13.8116 C.ar    1  UNL1        0.0331
     14 C          63.4458   90.7565   14.1430 C.3     1  UNL1        0.0612
     15 C          64.7248   91.4366   13.7539 C.ar    1  UNL1        0.0111
     16 C          65.8206   91.6078   14.7639 C.ar    1  UNL1       -0.0016
     17 C          67.0996   92.2879   14.3748 C.ar    1  UNL1        0.0011
     18 C          67.2829   92.7969   12.9757 C.ar    1  UNL1        0.0181
     19 C          66.1872   92.6258   11.9658 C.ar    1  UNL1        0.0928
     20 C          64.9081   91.9456   12.3549 C.ar    1  UNL1        0.1509
     21 F          63.8123   91.7744   11.3450 F       1  UNL1       -0.2031
     22 N          66.3705   93.1347   10.5668 N.pl3   1  UNL1       -0.2034
     23 H          65.5845   93.3489   10.0139 H       1  UNL1        0.1749
     24 S          67.7513   93.3173   10.0100 S.O2    1  UNL1        0.1068
     25 N          69.1322   93.4998    9.4532 N.3     1  UNL1       -0.1906
     26 O          67.6287   94.8011   10.1926 O.2     1  UNL1       -0.1383
     27 O          67.8738   91.8335    9.8274 O.2     1  UNL1       -0.1383
     28 H          69.3666   94.4925    9.4441 H       1  UNL1        0.1456
     29 H          69.1663   93.1337    8.5019 H       1  UNL1        0.1456
     30 O          63.4334   82.4413   14.9234 O.3     1  UNL1       -0.4077
     31 C          63.5500   81.3954   13.8546 C.2     1  UNL1        0.4096
     32 O          64.8758   81.1324   13.2039 O.2     1  UNL1       -0.2258
     33 N          62.3409   80.6124   13.4364 N.am    1  UNL1       -0.2422
     34 C          62.4575   79.5664   12.3676 C.3     1  UNL1        0.1184
     35 C          61.0151   80.8753   14.0870 C.3     1  UNL1        0.1184
@<TRIPOS>BOND
     1     1     2    1
     2     2     3   ar
     3     3    14    1
     4    14    15    1
     5    15    16   ar
     6    16    17   ar
     7    17    18   ar
     8    18    19   ar
     9    19    22    1
    10    22    24    1
    11    24    25    1
    12    24    26    2
    13    24    27    2
    14    19    20   ar
    15    20    21    1
    16     3     4   ar
    17     4     5    2
    18     4     6   ar
    19     6     7   ar
    20     7     8   ar
    21     8     9   ar
    22     9    30    1
    23    30    31    1
    24    31    32    2
    25    31    33   am
    26    33    34    1
    27    33    35    1
    28     9    10   ar
    29    10    11    1
    30    10    12   ar
    31    12    13   ar
    32    13     2   ar
    33    20    15   ar
    34    13     7   ar
    35    22    23    1
    36    25    28    1
    37    25    29    1
