@<TRIPOS>MOLECULE
*****
 25 27 0 0 0
SMALL
GASTEIGER

@<TRIPOS>ATOM
      1 C          63.7598   89.4979   15.1066 C.2     1  UNL1        0.2320
      2 O          62.4356   89.2824   15.7776 O.2     1  UNL1       -0.2744
      3 N          64.5726   88.3205   14.6559 N.am    1  UNL1       -0.2639
      4 H          65.4417   88.4619   14.2154 H       1  UNL1        0.1567
      5 C          64.0614   86.9277   14.8762 C.ar    1  UNL1        0.1655
      6 N          63.8691   85.8815   13.8186 N.ar    1  UNL1       -0.2239
      7 C          63.3415   84.6437   14.4816 C.ar    1  UNL1        0.0899
      8 C          63.2077   84.9249   15.9489 C.ar    1  UNL1        0.0572
      9 S          63.6526   86.3365   16.1928 S.2     1  UNL1       -0.0508
     10 C          63.0066   83.3515   13.7973 C.ar    1  UNL1        0.0236
     11 C          62.2104   82.3050   14.5191 C.ar    1  UNL1        0.0223
     12 C          61.8754   81.0130   13.8350 C.ar    1  UNL1        0.1013
     13 N          62.3366   80.7672   12.4288 N.ar    1  UNL1       -0.2165
     14 C          63.1328   81.8137   11.7071 C.ar    1  UNL1        0.2224
     15 F          63.5940   81.5680   10.3010 F       1  UNL1       -0.1832
     16 C          63.4678   83.1059   12.3913 C.ar    1  UNL1        0.0512
     17 C          64.2710   90.8907   14.8863 C.3     1  UNL1        0.1118
     18 C          65.8328   92.8837   11.8303 C.ar    1  UNL1        0.1384
     19 C          64.9717   92.3950   10.7034 C.ar    1  UNL1        0.0369
     20 C          63.8771   91.4049   10.9709 C.ar    1  UNL1        0.0028
     21 C          63.6435   90.9035   12.3651 C.ar    1  UNL1       -0.0036
     22 C          64.5046   91.3922   13.4919 C.ar    1  UNL1       -0.0101
     23 C          65.5992   92.3823   13.2245 C.ar    1  UNL1        0.0331
     24 C          66.6221   95.1525   10.8406 C.3     1  UNL1        0.2525
     25 O          66.9274   93.8738   11.5628 O.3     1  UNL1       -0.4714
@<TRIPOS>BOND
     1    24    25    1
     2    25    18    1
     3    18    19   ar
     4    19    20   ar
     5    20    21   ar
     6    21    22   ar
     7    22    17    1
     8    17     1    1
     9     1     2    2
    10     1     3   am
    11     3     5    1
    12     5     6   ar
    13     6     7   ar
    14     7    10    1
    15    10    11   ar
    16    11    12   ar
    17    12    13   ar
    18    13    14   ar
    19    14    15    1
    20    14    16   ar
    21     7     8   ar
    22     8     9   ar
    23    22    23   ar
    24    23    18   ar
    25     9     5   ar
    26    16    10   ar
    27     3     4    1
@<TRIPOS>MOLECULE
*****
 25 27 0 0 0
SMALL
GASTEIGER

@<TRIPOS>ATOM
      1 C          63.5544   89.1702   15.5694 C.2     1  UNL1        0.2320
      2 O          62.4685   88.6274   16.4504 O.2     1  UNL1       -0.2744
      3 N          64.3639   88.2389   14.7165 N.am    1  UNL1       -0.2639
      4 H          65.0766   88.5952   14.1382 H       1  UNL1        0.1567
      5 C          64.0875   86.7649   14.7445 C.ar    1  UNL1        0.1655
      6 N          63.8803   85.8838   13.5484 N.ar    1  UNL1       -0.2239
      7 C          63.6345   84.4875   14.0382 C.ar    1  UNL1        0.0899
      8 C          63.6899   84.5057   15.5372 C.ar    1  UNL1        0.0572
      9 S          63.9698   85.9132   15.9736 S.2     1  UNL1       -0.0508
     10 C          63.3784   83.2843   13.1799 C.ar    1  UNL1        0.0236
     11 C          63.8094   83.2825   11.7432 C.ar    1  UNL1        0.0223
     12 C          63.5533   82.0794   10.8848 C.ar    1  UNL1        0.1013
     13 N          62.8661   80.8779   11.4632 N.ar    1  UNL1       -0.2165
     14 C          62.4350   80.8798   12.9000 C.ar    1  UNL1        0.2224
     15 F          61.7478   79.6785   13.4783 F       1  UNL1       -0.1832
     16 C          62.6912   82.0830   13.7583 C.ar    1  UNL1        0.0512
     17 C          63.8307   90.6442   15.5414 C.3     1  UNL1        0.1118
     18 C          66.9988   92.1812   13.7108 C.ar    1  UNL1        0.1384
     19 C          66.4573   92.3802   12.3262 C.ar    1  UNL1        0.0369
     20 C          65.0403   92.0005   12.0133 C.ar    1  UNL1        0.0028
     21 C          64.1648   91.4219   13.0850 C.ar    1  UNL1       -0.0036
     22 C          64.7063   91.2229   14.4696 C.ar    1  UNL1       -0.0101
     23 C          66.1233   91.6026   14.7825 C.ar    1  UNL1        0.0331
     24 C          68.8255   92.8260   15.4420 C.3     1  UNL1        0.2525
     25 O          68.4158   92.5609   14.0237 O.3     1  UNL1       -0.4714
@<TRIPOS>BOND
     1    24    25    1
     2    25    18    1
     3    18    19   ar
     4    19    20   ar
     5    20    21   ar
     6    21    22   ar
     7    22    17    1
     8    17     1    1
     9     1     2    2
    10     1     3   am
    11     3     5    1
    12     5     6   ar
    13     6     7   ar
    14     7    10    1
    15    10    11   ar
    16    11    12   ar
    17    12    13   ar
    18    13    14   ar
    19    14    15    1
    20    14    16   ar
    21     7     8   ar
    22     8     9   ar
    23    22    23   ar
    24    23    18   ar
    25     9     5   ar
    26    16    10   ar
    27     3     4    1
@<TRIPOS>MOLECULE
*****
 25 27 0 0 0
SMALL
GASTEIGER

@<TRIPOS>ATOM
      1 C          63.6316   89.2733   15.1459 C.2     1  UNL1        0.2320
      2 O          63.0609   88.7625   16.4356 O.2     1  UNL1       -0.2744
      3 N          64.1267   88.3078   14.1102 N.am    1  UNL1       -0.2639
      4 H          64.5012   88.6431   13.2637 H       1  UNL1        0.1567
      5 C          64.0511   86.8314   14.3643 C.ar    1  UNL1        0.1655
      6 N          63.5243   85.7988   13.4123 N.ar    1  UNL1       -0.2239
      7 C          63.6367   84.4576   14.0745 C.ar    1  UNL1        0.0899
      8 C          64.2331   84.6613   15.4358 C.ar    1  UNL1        0.0572
      9 S          64.4892   86.1284   15.6148 S.2     1  UNL1       -0.0508
     10 C          63.2251   83.1435   13.4800 C.ar    1  UNL1        0.0236
     11 C          62.5089   82.1303   14.3229 C.ar    1  UNL1        0.0223
     12 C          62.0972   80.8162   13.7284 C.ar    1  UNL1        0.1013
     13 N          62.4018   80.5151   12.2908 N.ar    1  UNL1       -0.2165
     14 C          63.1180   81.5282   11.4478 C.ar    1  UNL1        0.2224
     15 F          63.4226   81.2272   10.0102 F       1  UNL1       -0.1832
     16 C          63.5296   82.8424   12.0424 C.ar    1  UNL1        0.0512
     17 C          63.7071   90.7497   14.8919 C.3     1  UNL1        0.1118
     18 C          67.1662   92.0714   13.4643 C.ar    1  UNL1        0.1384
     19 C          66.7858   92.3889   12.0486 C.ar    1  UNL1        0.0369
     20 C          65.3792   92.1600   11.5806 C.ar    1  UNL1        0.0028
     21 C          64.3529   91.6136   12.5283 C.ar    1  UNL1       -0.0036
     22 C          64.7333   91.2961   13.9441 C.ar    1  UNL1       -0.0101
     23 C          66.1399   91.5250   14.4121 C.ar    1  UNL1        0.0331
     24 C          68.8343   92.7019   15.3537 C.3     1  UNL1        0.2525
     25 O          68.5728   92.3004   13.9324 O.3     1  UNL1       -0.4714
@<TRIPOS>BOND
     1    24    25    1
     2    25    18    1
     3    18    19   ar
     4    19    20   ar
     5    20    21   ar
     6    21    22   ar
     7    22    17    1
     8    17     1    1
     9     1     2    2
    10     1     3   am
    11     3     5    1
    12     5     6   ar
    13     6     7   ar
    14     7    10    1
    15    10    11   ar
    16    11    12   ar
    17    12    13   ar
    18    13    14   ar
    19    14    15    1
    20    14    16   ar
    21     7     8   ar
    22     8     9   ar
    23    22    23   ar
    24    23    18   ar
    25     9     5   ar
    26    16    10   ar
    27     3     4    1
@<TRIPOS>MOLECULE
*****
 25 27 0 0 0
SMALL
GASTEIGER

@<TRIPOS>ATOM
      1 C          63.5142   88.9990   13.3890 C.2     1  UNL1        0.2320
      2 O          63.0587   88.2917   12.1471 O.2     1  UNL1       -0.2744
      3 N          63.9610   88.2070   14.5821 N.am    1  UNL1       -0.2639
      4 H          64.2600   88.6712   15.3972 H       1  UNL1        0.1567
      5 C          63.9524   86.7079   14.5331 C.ar    1  UNL1        0.1655
      6 N          63.6649   85.8668   13.3248 N.ar    1  UNL1       -0.2239
      7 C          63.7646   84.4257   13.7288 C.ar    1  UNL1        0.0899
      8 C          64.1137   84.3760   15.1868 C.ar    1  UNL1        0.0572
      9 S          64.2297   85.7865   15.6839 S.2     1  UNL1       -0.0508
     10 C          63.5524   83.2420   12.8322 C.ar    1  UNL1        0.0236
     11 C          63.9259   83.3233   11.3817 C.ar    1  UNL1        0.0223
     12 C          63.7138   82.1397   10.4851 C.ar    1  UNL1        0.1013
     13 N          63.1281   80.8746   11.0390 N.ar    1  UNL1       -0.2165
     14 C          62.7546   80.7933   12.4895 C.ar    1  UNL1        0.2224
     15 F          62.1689   79.5283   13.0433 F       1  UNL1       -0.1832
     16 C          62.9667   81.9770   13.3861 C.ar    1  UNL1        0.0512
     17 C          63.5228   90.4981   13.4380 C.3     1  UNL1        0.1118
     18 C          66.5174   92.9278   12.5001 C.ar    1  UNL1        0.1384
     19 C          67.4294   92.7193   13.6725 C.ar    1  UNL1        0.0369
     20 C          67.0393   91.7704   14.7668 C.ar    1  UNL1        0.0028
     21 C          65.7371   91.0300   14.6886 C.ar    1  UNL1       -0.0036
     22 C          64.8251   91.2385   13.5162 C.ar    1  UNL1       -0.0101
     23 C          65.2152   92.1874   12.4219 C.ar    1  UNL1        0.0331
     24 C          66.3171   95.2548   11.3623 C.3     1  UNL1        0.2525
     25 O          66.9075   93.8766   11.4058 O.3     1  UNL1       -0.4714
@<TRIPOS>BOND
     1    24    25    1
     2    25    18    1
     3    18    19   ar
     4    19    20   ar
     5    20    21   ar
     6    21    22   ar
     7    22    17    1
     8    17     1    1
     9     1     2    2
    10     1     3   am
    11     3     5    1
    12     5     6   ar
    13     6     7   ar
    14     7    10    1
    15    10    11   ar
    16    11    12   ar
    17    12    13   ar
    18    13    14   ar
    19    14    15    1
    20    14    16   ar
    21     7     8   ar
    22     8     9   ar
    23    22    23   ar
    24    23    18   ar
    25     9     5   ar
    26    16    10   ar
    27     3     4    1
@<TRIPOS>MOLECULE
*****
 25 27 0 0 0
SMALL
GASTEIGER

@<TRIPOS>ATOM
      1 C          63.1507   89.3061   12.5936 C.2     1  UNL1        0.2320
      2 O          63.9022   88.4551   13.5738 O.2     1  UNL1       -0.2744
      3 N          62.3905   88.6639   11.4711 N.am    1  UNL1       -0.2639
      4 H          61.8972   89.2224   10.8278 H       1  UNL1        0.1567
      5 C          62.3820   87.1707   11.3290 C.ar    1  UNL1        0.1655
      6 N          62.7450   86.1814   12.3964 N.ar    1  UNL1       -0.2239
      7 C          62.5963   84.8039   11.8217 C.ar    1  UNL1        0.0899
      8 C          62.1413   84.9419   10.3990 C.ar    1  UNL1        0.0572
      9 S          62.0089   86.4046   10.0945 S.2     1  UNL1       -0.0508
     10 C          62.8568   83.5147   12.5429 C.ar    1  UNL1        0.0236
     11 C          63.3667   83.5342   13.9535 C.ar    1  UNL1        0.0223
     12 C          63.6273   82.2452   14.6747 C.ar    1  UNL1        0.1013
     13 N          63.3779   80.9364   13.9854 N.ar    1  UNL1       -0.2165
     14 C          62.8680   80.9168   12.5749 C.ar    1  UNL1        0.2224
     15 F          62.6186   79.6082   11.8857 F       1  UNL1       -0.1832
     16 C          62.6075   82.2060   11.8537 C.ar    1  UNL1        0.0512
     17 C          63.1592   90.7993   12.7357 C.3     1  UNL1        0.1118
     18 C          66.6294   92.7177   12.9024 C.ar    1  UNL1        0.1384
     19 C          66.7782   93.1587   11.4764 C.ar    1  UNL1        0.0369
     20 C          65.7208   92.8133   10.4702 C.ar    1  UNL1        0.0028
     21 C          64.5144   92.0268   10.8900 C.ar    1  UNL1       -0.0036
     22 C          64.3656   91.5858   12.3159 C.ar    1  UNL1       -0.0101
     23 C          65.4230   91.9313   13.3221 C.ar    1  UNL1        0.0331
     24 C          68.0178   92.0998   15.0096 C.3     1  UNL1        0.2525
     25 O          67.6868   93.0632   13.9086 O.3     1  UNL1       -0.4714
@<TRIPOS>BOND
     1    24    25    1
     2    25    18    1
     3    18    19   ar
     4    19    20   ar
     5    20    21   ar
     6    21    22   ar
     7    22    17    1
     8    17     1    1
     9     1     2    2
    10     1     3   am
    11     3     5    1
    12     5     6   ar
    13     6     7   ar
    14     7    10    1
    15    10    11   ar
    16    11    12   ar
    17    12    13   ar
    18    13    14   ar
    19    14    15    1
    20    14    16   ar
    21     7     8   ar
    22     8     9   ar
    23    22    23   ar
    24    23    18   ar
    25     9     5   ar
    26    16    10   ar
    27     3     4    1
@<TRIPOS>MOLECULE
*****
 25 27 0 0 0
SMALL
GASTEIGER

@<TRIPOS>ATOM
      1 C          64.2932   85.3485   15.3710 C.2     1  UNL1        0.2320
      2 O          65.6154   85.8595   14.8805 O.2     1  UNL1       -0.2744
      3 N          63.2240   86.3142   15.7886 N.am    1  UNL1       -0.2639
      4 H          62.3562   85.9788   16.1105 H       1  UNL1        0.1567
      5 C          63.4770   87.7909   15.7156 C.ar    1  UNL1        0.1655
      6 N          64.1551   88.5146   14.5902 N.ar    1  UNL1       -0.2239
      7 C          64.1935   89.9741   14.9342 C.ar    1  UNL1        0.0899
      8 C          63.5393   90.1524   16.2722 C.ar    1  UNL1        0.0572
      9 S          63.0965   88.8031   16.7551 S.2     1  UNL1       -0.0508
     10 C          64.7828   91.0640   14.0887 C.ar    1  UNL1        0.0236
     11 C          65.7838   92.0127   14.6786 C.ar    1  UNL1        0.0223
     12 C          66.3731   93.1026   13.8332 C.ar    1  UNL1        0.1013
     13 N          65.9614   93.2438   12.3976 N.ar    1  UNL1       -0.2165
     14 C          64.9604   92.2952   11.8077 C.ar    1  UNL1        0.2224
     15 F          64.5486   92.4364   10.3723 F       1  UNL1       -0.1832
     16 C          64.3711   91.2053   12.6533 C.ar    1  UNL1        0.0512
     17 C          64.0402   83.8718   15.4440 C.3     1  UNL1        0.1118
     18 C          63.8627   82.6527   11.6714 C.ar    1  UNL1        0.1384
     19 C          62.7780   81.6204   11.7579 C.ar    1  UNL1        0.0369
     20 C          62.1140   81.3385   13.0730 C.ar    1  UNL1        0.0028
     21 C          62.5347   82.0890   14.3017 C.ar    1  UNL1       -0.0036
     22 C          63.6194   83.1213   14.2153 C.ar    1  UNL1       -0.0101
     23 C          64.2835   83.4032   12.9001 C.ar    1  UNL1        0.0331
     24 C          63.8730   83.8541    9.3678 C.3     1  UNL1        0.2525
     25 O          64.5268   82.9346   10.3563 O.3     1  UNL1       -0.4714
@<TRIPOS>BOND
     1    24    25    1
     2    25    18    1
     3    18    19   ar
     4    19    20   ar
     5    20    21   ar
     6    21    22   ar
     7    22    17    1
     8    17     1    1
     9     1     2    2
    10     1     3   am
    11     3     5    1
    12     5     6   ar
    13     6     7   ar
    14     7    10    1
    15    10    11   ar
    16    11    12   ar
    17    12    13   ar
    18    13    14   ar
    19    14    15    1
    20    14    16   ar
    21     7     8   ar
    22     8     9   ar
    23    22    23   ar
    24    23    18   ar
    25     9     5   ar
    26    16    10   ar
    27     3     4    1
@<TRIPOS>MOLECULE
*****
 25 27 0 0 0
SMALL
GASTEIGER

@<TRIPOS>ATOM
      1 C          61.8170   88.5315   11.4897 C.2     1  UNL1        0.2320
      2 O          63.0172   87.8706   12.1001 O.2     1  UNL1       -0.2744
      3 N          61.8419   90.0009   11.1887 N.am    1  UNL1       -0.2639
      4 H          61.0542   90.4347   10.7881 H       1  UNL1        0.1567
      5 C          63.0670   90.8091   11.4982 C.ar    1  UNL1        0.1655
      6 N          63.9401   91.5053   10.4967 N.ar    1  UNL1       -0.2239
      7 C          65.0468   92.1896   11.2430 C.ar    1  UNL1        0.0899
      8 C          64.8577   91.9163   12.7058 C.ar    1  UNL1        0.0572
      9 S          63.6341   91.0632   12.8634 S.2     1  UNL1       -0.0508
     10 C          66.1491   93.0042   10.6336 C.ar    1  UNL1        0.0236
     11 C          66.0267   94.4975   10.5620 C.ar    1  UNL1        0.0223
     12 C          67.1289   95.3120    9.9526 C.ar    1  UNL1        0.1013
     13 N          68.3538   94.6333    9.4147 N.ar    1  UNL1       -0.2165
     14 C          68.4762   93.1401    9.4862 C.ar    1  UNL1        0.2224
     15 F          69.7009   92.4613    8.9484 F       1  UNL1       -0.1832
     16 C          67.3739   92.3255   10.0957 C.ar    1  UNL1        0.0512
     17 C          60.5919   87.7233   11.1803 C.3     1  UNL1        0.1118
     18 C          61.3682   85.6837    7.8655 C.ar    1  UNL1        0.1384
     19 C          60.0863   85.8725    7.1098 C.ar    1  UNL1        0.0369
     20 C          58.9730   86.6782    7.7108 C.ar    1  UNL1        0.0028
     21 C          59.1415   87.2951    9.0677 C.ar    1  UNL1       -0.0036
     22 C          60.4233   87.1063    9.8234 C.ar    1  UNL1       -0.0101
     23 C          61.5367   86.3006    9.2223 C.ar    1  UNL1        0.0331
     24 C          62.3382   84.3154    5.8814 C.3     1  UNL1        0.2525
     25 O          62.4815   84.8780    7.2644 O.3     1  UNL1       -0.4714
@<TRIPOS>BOND
     1    24    25    1
     2    25    18    1
     3    18    19   ar
     4    19    20   ar
     5    20    21   ar
     6    21    22   ar
     7    22    17    1
     8    17     1    1
     9     1     2    2
    10     1     3   am
    11     3     5    1
    12     5     6   ar
    13     6     7   ar
    14     7    10    1
    15    10    11   ar
    16    11    12   ar
    17    12    13   ar
    18    13    14   ar
    19    14    15    1
    20    14    16   ar
    21     7     8   ar
    22     8     9   ar
    23    22    23   ar
    24    23    18   ar
    25     9     5   ar
    26    16    10   ar
    27     3     4    1
@<TRIPOS>MOLECULE
*****
 25 27 0 0 0
SMALL
GASTEIGER

@<TRIPOS>ATOM
      1 C          62.9326   89.0057   12.2507 C.2     1  UNL1        0.2320
      2 O          62.1896   87.9683   11.4623 O.2     1  UNL1       -0.2744
      3 N          63.7721   88.5966   13.4247 N.am    1  UNL1       -0.2639
      4 H          64.2598   89.2775   13.9422 H       1  UNL1        0.1567
      5 C          63.8684   87.1502   13.8101 C.ar    1  UNL1        0.1655
      6 N          63.2642   85.9971   13.0650 N.ar    1  UNL1       -0.2239
      7 C          63.6083   84.7371   13.8027 C.ar    1  UNL1        0.0899
      8 C          64.4252   85.1116   15.0038 C.ar    1  UNL1        0.0572
      9 S          64.5859   86.6029   15.0083 S.2     1  UNL1       -0.0508
     10 C          63.2061   83.3469   13.4085 C.ar    1  UNL1        0.0236
     11 C          62.5914   82.4280   14.4224 C.ar    1  UNL1        0.0223
     12 C          62.1892   81.0378   14.0283 C.ar    1  UNL1        0.1013
     13 N          62.4017   80.5663   12.6202 N.ar    1  UNL1       -0.2165
     14 C          63.0163   81.4851   11.6063 C.ar    1  UNL1        0.2224
     15 F          63.2287   81.0136   10.1983 F       1  UNL1       -0.1832
     16 C          63.4185   82.8754   12.0005 C.ar    1  UNL1        0.0512
     17 C          62.8363   90.4521   11.8653 C.3     1  UNL1        0.1118
     18 C          65.8475   92.4948   13.4497 C.ar    1  UNL1        0.1384
     19 C          66.4417   93.1209   12.2230 C.ar    1  UNL1        0.0369
     20 C          65.8342   92.8574   10.8771 C.ar    1  UNL1        0.0028
     21 C          64.6324   91.9678   10.7579 C.ar    1  UNL1       -0.0036
     22 C          64.0381   91.3417   11.9845 C.ar    1  UNL1       -0.0101
     23 C          64.6457   91.6052   13.3304 C.ar    1  UNL1        0.0331
     24 C          67.9373   92.9471   14.9254 C.3     1  UNL1        0.2525
     25 O          66.4550   92.7583   14.7956 O.3     1  UNL1       -0.4714
@<TRIPOS>BOND
     1    24    25    1
     2    25    18    1
     3    18    19   ar
     4    19    20   ar
     5    20    21   ar
     6    21    22   ar
     7    22    17    1
     8    17     1    1
     9     1     2    2
    10     1     3   am
    11     3     5    1
    12     5     6   ar
    13     6     7   ar
    14     7    10    1
    15    10    11   ar
    16    11    12   ar
    17    12    13   ar
    18    13    14   ar
    19    14    15    1
    20    14    16   ar
    21     7     8   ar
    22     8     9   ar
    23    22    23   ar
    24    23    18   ar
    25     9     5   ar
    26    16    10   ar
    27     3     4    1
@<TRIPOS>MOLECULE
*****
 25 27 0 0 0
SMALL
GASTEIGER

@<TRIPOS>ATOM
      1 C          63.5709   90.8609   13.7062 C.2     1  UNL1        0.2320
      2 O          63.9906   91.5479   12.4405 O.2     1  UNL1       -0.2744
      3 N          62.4467   89.8680   13.6833 N.am    1  UNL1       -0.2639
      4 H          62.1712   89.4171   14.5139 H       1  UNL1        0.1567
      5 C          61.7423   89.5622   12.3948 C.ar    1  UNL1        0.1655
      6 N          61.9035   88.3156   11.5762 N.ar    1  UNL1       -0.2239
      7 C          61.0139   88.4322   10.3741 C.ar    1  UNL1        0.0899
      8 C          60.3029   89.7509   10.4497 C.ar    1  UNL1        0.0572
      9 S          60.7531   90.4492   11.6986 S.2     1  UNL1       -0.0508
     10 C          60.8619   87.4096    9.2872 C.ar    1  UNL1        0.0236
     11 C          59.5678   87.2993    8.5369 C.ar    1  UNL1        0.0223
     12 C          59.4157   86.2769    7.4500 C.ar    1  UNL1        0.1013
     13 N          60.5580   85.3646    7.1134 N.ar    1  UNL1       -0.2165
     14 C          61.8521   85.4749    7.8637 C.ar    1  UNL1        0.2224
     15 F          62.9943   84.5627    7.5272 F       1  UNL1       -0.1832
     16 C          62.0041   86.4974    8.9506 C.ar    1  UNL1        0.0512
     17 C          64.2753   91.1667   14.9947 C.3     1  UNL1        0.1118
     18 C          67.9577   91.9799   13.7585 C.ar    1  UNL1        0.1384
     19 C          68.4903   92.7413   14.9359 C.ar    1  UNL1        0.0369
     20 C          67.6180   92.9779   16.1330 C.ar    1  UNL1        0.0028
     21 C          66.2129   92.4530   16.1526 C.ar    1  UNL1       -0.0036
     22 C          65.6803   91.6916   14.9751 C.ar    1  UNL1       -0.0101
     23 C          66.5527   91.4550   13.7781 C.ar    1  UNL1        0.0331
     24 C          68.2777   91.9382   11.1805 C.3     1  UNL1        0.2525
     25 O          68.8301   91.7433   12.5614 O.3     1  UNL1       -0.4714
@<TRIPOS>BOND
     1    24    25    1
     2    25    18    1
     3    18    19   ar
     4    19    20   ar
     5    20    21   ar
     6    21    22   ar
     7    22    17    1
     8    17     1    1
     9     1     2    2
    10     1     3   am
    11     3     5    1
    12     5     6   ar
    13     6     7   ar
    14     7    10    1
    15    10    11   ar
    16    11    12   ar
    17    12    13   ar
    18    13    14   ar
    19    14    15    1
    20    14    16   ar
    21     7     8   ar
    22     8     9   ar
    23    22    23   ar
    24    23    18   ar
    25     9     5   ar
    26    16    10   ar
    27     3     4    1
