@<TRIPOS>MOLECULE
*****
 25 27 0 0 0
SMALL
GASTEIGER

@<TRIPOS>ATOM
      1 C          63.1492   89.5318   16.5863 C.3     1  UNL1        0.0522
      2 C          63.5041   90.0705   15.2321 C.ar    1  UNL1        0.0625
      3 C          64.4523   91.2263   15.1096 C.ar    1  UNL1        0.0522
      4 C          64.8071   91.7649   13.7553 C.ar    1  UNL1        0.1483
      5 C          64.2139   91.1478   12.5237 C.ar    1  UNL1        0.0612
      6 C          63.2657   89.9919   12.6462 C.ar    1  UNL1        0.1374
      7 N          62.9108   89.4533   14.0004 N.ar    1  UNL1       -0.2449
      8 C          62.6724   89.3747   11.4145 C.2     1  UNL1        0.2684
      9 O          62.6641   90.1374   10.1229 O.2     1  UNL1       -0.2681
     10 N          62.0874   87.9948   11.4744 N.am    1  UNL1       -0.2645
     11 H          62.0929   87.4942   12.3221 H       1  UNL1        0.1566
     12 C          61.4941   87.3775   10.2427 C.ar    1  UNL1        0.1368
     13 C          60.0813   87.6946    9.8509 C.ar    1  UNL1        0.0346
     14 C          59.4881   87.0774    8.6193 C.ar    1  UNL1        0.0068
     15 C          60.3076   86.1431    7.7794 C.ar    1  UNL1        0.0498
     16 C          61.7204   85.8260    8.1711 C.ar    1  UNL1        0.2234
     17 F          62.5399   84.8917    7.3311 F       1  UNL1       -0.1832
     18 N          62.3136   86.4433    9.4027 N.ar    1  UNL1       -0.2029
     19 O          65.7553   92.9208   13.6328 O.3     1  UNL1       -0.4502
     20 C          66.3932   93.2307   12.3110 C.ar    1  UNL1        0.1835
     21 C          66.0745   94.5167   11.6076 C.ar    1  UNL1        0.1396
     22 N          66.7124   94.8266   10.2859 N.ar    1  UNL1       -0.2192
     23 C          67.6690   93.8506    9.6675 C.ar    1  UNL1        0.1991
     24 N          67.9876   92.5647   10.3709 N.ar    1  UNL1       -0.2192
     25 C          67.3498   92.2547   11.6927 C.ar    1  UNL1        0.1396
@<TRIPOS>BOND
     1     1     2    1
     2     2     3   ar
     3     3     4   ar
     4     4    19    1
     5    19    20    1
     6    20    21   ar
     7    21    22   ar
     8    22    23   ar
     9    23    24   ar
    10    24    25   ar
    11     4     5   ar
    12     5     6   ar
    13     6     8    1
    14     8     9    2
    15     8    10   am
    16    10    12    1
    17    12    13   ar
    18    13    14   ar
    19    14    15   ar
    20    15    16   ar
    21    16    17    1
    22    16    18   ar
    23     6     7   ar
    24     7     2   ar
    25    25    20   ar
    26    18    12   ar
    27    10    11    1
@<TRIPOS>MOLECULE
*****
 25 27 0 0 0
SMALL
GASTEIGER

@<TRIPOS>ATOM
      1 C          62.5925   90.8424   10.3360 C.3     1  UNL1        0.0522
      2 C          63.1061   90.2793   11.6280 C.ar    1  UNL1        0.0625
      3 C          63.6330   91.1984   12.6898 C.ar    1  UNL1        0.0522
      4 C          64.1466   90.6354   13.9818 C.ar    1  UNL1        0.1483
      5 C          64.1333   89.1532   14.2120 C.ar    1  UNL1        0.0612
      6 C          63.6063   88.2341   13.1501 C.ar    1  UNL1        0.1374
      7 N          63.0927   88.7972   11.8582 N.ar    1  UNL1       -0.2449
      8 C          63.5929   86.7519   13.3803 C.2     1  UNL1        0.2684
      9 O          64.4610   86.1505   14.4455 O.2     1  UNL1       -0.2681
     10 N          62.7115   85.8712   12.5452 N.am    1  UNL1       -0.2645
     11 H          62.1417   86.2660   11.8461 H       1  UNL1        0.1566
     12 C          62.6981   84.3890   12.7754 C.ar    1  UNL1        0.1368
     13 C          62.4867   83.8465   14.1577 C.ar    1  UNL1        0.0346
     14 C          62.4734   82.3643   14.3878 C.ar    1  UNL1        0.0068
     15 C          62.6713   81.4247   13.2355 C.ar    1  UNL1        0.0498
     16 C          62.8827   81.9671   11.8531 C.ar    1  UNL1        0.2234
     17 F          63.0806   81.0274   10.7008 F       1  UNL1       -0.1832
     18 N          62.8960   83.4493   11.6230 N.ar    1  UNL1       -0.2029
     19 O          64.6736   91.5546   15.0437 O.3     1  UNL1       -0.4502
     20 C          66.1065   91.9967   15.0092 C.ar    1  UNL1        0.1835
     21 C          66.7027   92.7012   16.1918 C.ar    1  UNL1        0.1396
     22 N          68.1356   93.1433   16.1574 N.ar    1  UNL1       -0.2192
     23 C          68.9724   92.8810   14.9404 C.ar    1  UNL1        0.1991
     24 N          68.3763   92.1766   13.7579 N.ar    1  UNL1       -0.2192
     25 C          66.9433   91.7345   13.7923 C.ar    1  UNL1        0.1396
@<TRIPOS>BOND
     1     1     2    1
     2     2     3   ar
     3     3     4   ar
     4     4    19    1
     5    19    20    1
     6    20    21   ar
     7    21    22   ar
     8    22    23   ar
     9    23    24   ar
    10    24    25   ar
    11     4     5   ar
    12     5     6   ar
    13     6     8    1
    14     8     9    2
    15     8    10   am
    16    10    12    1
    17    12    13   ar
    18    13    14   ar
    19    14    15   ar
    20    15    16   ar
    21    16    17    1
    22    16    18   ar
    23     6     7   ar
    24     7     2   ar
    25    25    20   ar
    26    18    12   ar
    27    10    11    1
@<TRIPOS>MOLECULE
*****
 25 27 0 0 0
SMALL
GASTEIGER

@<TRIPOS>ATOM
      1 C          58.7472   90.5493   11.8967 C.3     1  UNL1        0.0522
      2 C          60.0599   89.9646   11.4668 C.ar    1  UNL1        0.0625
      3 C          61.1671   90.8654   11.0056 C.ar    1  UNL1        0.0522
      4 C          62.4798   90.2807   10.5757 C.ar    1  UNL1        0.1483
      5 C          62.6854   88.7952   10.6069 C.ar    1  UNL1        0.0612
      6 C          61.5782   87.8944   11.0681 C.ar    1  UNL1        0.1374
      7 N          60.2655   88.4791   11.4980 N.ar    1  UNL1       -0.2449
      8 C          61.7838   86.4088   11.0994 C.2     1  UNL1        0.2684
      9 O          61.1488   85.5417   10.0530 O.2     1  UNL1       -0.2681
     10 N          62.6243   85.7905   12.1769 N.am    1  UNL1       -0.2645
     11 H          63.0410   86.3596   12.8637 H       1  UNL1        0.1566
     12 C          62.8298   84.3049   12.2082 C.ar    1  UNL1        0.1368
     13 C          63.5939   83.6302   11.1079 C.ar    1  UNL1        0.0346
     14 C          63.7994   82.1447   11.1392 C.ar    1  UNL1        0.0068
     15 C          63.2408   81.3339   12.2708 C.ar    1  UNL1        0.0498
     16 C          62.4767   82.0087   13.3711 C.ar    1  UNL1        0.2234
     17 F          61.9181   81.1979   14.5028 F       1  UNL1       -0.1832
     18 N          62.2712   83.4941   13.3398 N.ar    1  UNL1       -0.2029
     19 O          63.5870   91.1816   10.1145 O.3     1  UNL1       -0.4502
     20 C          64.4499   91.8846   11.1200 C.ar    1  UNL1        0.1835
     21 C          64.3462   91.5319   12.5744 C.ar    1  UNL1        0.1396
     22 N          65.2092   92.2349   13.5799 N.ar    1  UNL1       -0.2192
     23 C          66.1758   93.2906   13.1311 C.ar    1  UNL1        0.1991
     24 N          66.2794   93.6432   11.6769 N.ar    1  UNL1       -0.2192
     25 C          65.4165   92.9402   10.6714 C.ar    1  UNL1        0.1396
@<TRIPOS>BOND
     1     1     2    1
     2     2     3   ar
     3     3     4   ar
     4     4    19    1
     5    19    20    1
     6    20    21   ar
     7    21    22   ar
     8    22    23   ar
     9    23    24   ar
    10    24    25   ar
    11     4     5   ar
    12     5     6   ar
    13     6     8    1
    14     8     9    2
    15     8    10   am
    16    10    12    1
    17    12    13   ar
    18    13    14   ar
    19    14    15   ar
    20    15    16   ar
    21    16    17    1
    22    16    18   ar
    23     6     7   ar
    24     7     2   ar
    25    25    20   ar
    26    18    12   ar
    27    10    11    1
@<TRIPOS>MOLECULE
*****
 25 27 0 0 0
SMALL
GASTEIGER

@<TRIPOS>ATOM
      1 C          63.2813   89.2569   16.3905 C.3     1  UNL1        0.0522
      2 C          63.5030   89.8574   15.0340 C.ar    1  UNL1        0.0625
      3 C          64.3786   91.0659   14.8828 C.ar    1  UNL1        0.0522
      4 C          64.6004   91.6664   13.5262 C.ar    1  UNL1        0.1483
      5 C          63.9465   91.0584   12.3209 C.ar    1  UNL1        0.0612
      6 C          63.0709   89.8500   12.4721 C.ar    1  UNL1        0.1374
      7 N          62.8492   89.2495   13.8287 N.ar    1  UNL1       -0.2449
      8 C          62.4170   89.2420   11.2668 C.2     1  UNL1        0.2684
      9 O          62.0108   90.1125   10.1147 O.2     1  UNL1       -0.2681
     10 N          62.1693   87.7636   11.2135 N.am    1  UNL1       -0.2645
     11 H          62.4359   87.1923   11.9697 H       1  UNL1        0.1566
     12 C          61.5154   87.1556   10.0082 C.ar    1  UNL1        0.1368
     13 C          60.0719   87.4389    9.7150 C.ar    1  UNL1        0.0346
     14 C          59.4181   86.8309    8.5097 C.ar    1  UNL1        0.0068
     15 C          60.2078   85.9396    7.5976 C.ar    1  UNL1        0.0498
     16 C          61.6513   85.6562    7.8907 C.ar    1  UNL1        0.2234
     17 F          62.4409   84.7649    6.9786 F       1  UNL1       -0.1832
     18 N          62.3051   86.2642    9.0960 N.ar    1  UNL1       -0.2029
     19 O          65.4760   92.8749   13.3750 O.3     1  UNL1       -0.4502
     20 C          66.8381   92.8975   14.0030 C.ar    1  UNL1        0.1835
     21 C          67.9610   92.1166   13.3869 C.ar    1  UNL1        0.1396
     22 N          69.3230   92.1391   14.0149 N.ar    1  UNL1       -0.2192
     23 C          69.5622   92.9425   15.2589 C.ar    1  UNL1        0.1991
     24 N          68.4393   93.7233   15.8749 N.ar    1  UNL1       -0.2192
     25 C          67.0773   93.7008   15.2469 C.ar    1  UNL1        0.1396
@<TRIPOS>BOND
     1     1     2    1
     2     2     3   ar
     3     3     4   ar
     4     4    19    1
     5    19    20    1
     6    20    21   ar
     7    21    22   ar
     8    22    23   ar
     9    23    24   ar
    10    24    25   ar
    11     4     5   ar
    12     5     6   ar
    13     6     8    1
    14     8     9    2
    15     8    10   am
    16    10    12    1
    17    12    13   ar
    18    13    14   ar
    19    14    15   ar
    20    15    16   ar
    21    16    17    1
    22    16    18   ar
    23     6     7   ar
    24     7     2   ar
    25    25    20   ar
    26    18    12   ar
    27    10    11    1
@<TRIPOS>MOLECULE
*****
 25 27 0 0 0
SMALL
GASTEIGER

@<TRIPOS>ATOM
      1 C          67.4963   93.3826   15.4617 C.3     1  UNL1        0.0522
      2 C          66.5043   92.6973   14.5693 C.ar    1  UNL1        0.0625
      3 C          66.2557   93.2182   13.1849 C.ar    1  UNL1        0.0522
      4 C          65.2637   92.5328   12.2925 C.ar    1  UNL1        0.1483
      5 C          64.5203   91.3266   12.7847 C.ar    1  UNL1        0.0612
      6 C          64.7688   90.8057   14.1692 C.ar    1  UNL1        0.1374
      7 N          65.7608   91.4911   15.0615 N.ar    1  UNL1       -0.2449
      8 C          64.0254   89.5994   14.6614 C.2     1  UNL1        0.2684
      9 O          62.6050   89.7315   15.1252 O.2     1  UNL1       -0.2681
     10 N          64.7023   88.2612   14.6898 N.am    1  UNL1       -0.2645
     11 H          65.6345   88.1745   14.3854 H       1  UNL1        0.1566
     12 C          63.9588   87.0549   15.1821 C.ar    1  UNL1        0.1368
     13 C          63.3876   87.0402   16.5689 C.ar    1  UNL1        0.0346
     14 C          62.6442   85.8340   17.0611 C.ar    1  UNL1        0.0068
     15 C          62.4720   84.6424   16.1664 C.ar    1  UNL1        0.0498
     16 C          63.0432   84.6571   14.7795 C.ar    1  UNL1        0.2234
     17 F          62.8710   83.4655   13.8848 F       1  UNL1       -0.1832
     18 N          63.7866   85.8633   14.2873 N.ar    1  UNL1       -0.2029
     19 O          65.0152   93.0538   10.9080 O.3     1  UNL1       -0.4502
     20 C          65.8657   94.1608   10.3593 C.ar    1  UNL1        0.1835
     21 C          67.1278   93.8385    9.6153 C.ar    1  UNL1        0.1396
     22 N          67.9784   94.9455    9.0666 N.ar    1  UNL1       -0.2192
     23 C          67.5669   96.3747    9.2618 C.ar    1  UNL1        0.1991
     24 N          66.3049   96.6969   10.0057 N.ar    1  UNL1       -0.2192
     25 C          65.4543   95.5899   10.5544 C.ar    1  UNL1        0.1396
@<TRIPOS>BOND
     1     1     2    1
     2     2     3   ar
     3     3     4   ar
     4     4    19    1
     5    19    20    1
     6    20    21   ar
     7    21    22   ar
     8    22    23   ar
     9    23    24   ar
    10    24    25   ar
    11     4     5   ar
    12     5     6   ar
    13     6     8    1
    14     8     9    2
    15     8    10   am
    16    10    12    1
    17    12    13   ar
    18    13    14   ar
    19    14    15   ar
    20    15    16   ar
    21    16    17    1
    22    16    18   ar
    23     6     7   ar
    24     7     2   ar
    25    25    20   ar
    26    18    12   ar
    27    10    11    1
@<TRIPOS>MOLECULE
*****
 25 27 0 0 0
SMALL
GASTEIGER

@<TRIPOS>ATOM
      1 C          62.7642   80.3923   12.7015 C.3     1  UNL1        0.0522
      2 C          62.8927   81.8746   12.8918 C.ar    1  UNL1        0.0625
      3 C          63.4588   82.4205   14.1691 C.ar    1  UNL1        0.0522
      4 C          63.5873   83.9028   14.3594 C.ar    1  UNL1        0.1483
      5 C          63.1497   84.8392   13.2725 C.ar    1  UNL1        0.0612
      6 C          62.5835   84.2933   11.9952 C.ar    1  UNL1        0.1374
      7 N          62.4551   82.8110   11.8049 N.ar    1  UNL1       -0.2449
      8 C          62.1459   85.2298   10.9082 C.2     1  UNL1        0.2684
      9 O          62.7623   85.1357    9.5439 O.2     1  UNL1       -0.2681
     10 N          61.0918   86.2603   11.1854 N.am    1  UNL1       -0.2645
     11 H          60.6872   86.3221   12.0808 H       1  UNL1        0.1566
     12 C          60.6541   87.1967   10.0984 C.ar    1  UNL1        0.1368
     13 C          60.9313   88.6661   10.2176 C.ar    1  UNL1        0.0346
     14 C          60.4936   89.6024    9.1306 C.ar    1  UNL1        0.0068
     15 C          59.7787   89.0695    7.9244 C.ar    1  UNL1        0.0498
     16 C          59.5015   87.6002    7.8052 C.ar    1  UNL1        0.2234
     17 F          58.7866   87.0672    6.5990 F       1  UNL1       -0.1832
     18 N          59.9392   86.6638    8.8922 N.ar    1  UNL1       -0.2029
     19 O          64.1535   84.4487   15.6368 O.3     1  UNL1       -0.4502
     20 C          63.7912   85.8331   16.0864 C.ar    1  UNL1        0.1835
     21 C          63.0147   86.0306   17.3545 C.ar    1  UNL1        0.1396
     22 N          62.6524   87.4150   17.8042 N.ar    1  UNL1       -0.2192
     23 C          63.0668   88.6019   16.9858 C.ar    1  UNL1        0.1991
     24 N          63.8433   88.4043   15.7178 N.ar    1  UNL1       -0.2192
     25 C          64.2055   87.0199   15.2681 C.ar    1  UNL1        0.1396
@<TRIPOS>BOND
     1     1     2    1
     2     2     3   ar
     3     3     4   ar
     4     4    19    1
     5    19    20    1
     6    20    21   ar
     7    21    22   ar
     8    22    23   ar
     9    23    24   ar
    10    24    25   ar
    11     4     5   ar
    12     5     6   ar
    13     6     8    1
    14     8     9    2
    15     8    10   am
    16    10    12    1
    17    12    13   ar
    18    13    14   ar
    19    14    15   ar
    20    15    16   ar
    21    16    17    1
    22    16    18   ar
    23     6     7   ar
    24     7     2   ar
    25    25    20   ar
    26    18    12   ar
    27    10    11    1
@<TRIPOS>MOLECULE
*****
 25 27 0 0 0
SMALL
GASTEIGER

@<TRIPOS>ATOM
      1 C          62.5515   87.1806   18.6876 C.3     1  UNL1        0.0522
      2 C          63.0464   87.3881   17.2869 C.ar    1  UNL1        0.0625
      3 C          63.3162   88.7755   16.7846 C.ar    1  UNL1        0.0522
      4 C          63.8111   88.9831   15.3839 C.ar    1  UNL1        0.1483
      5 C          64.0361   87.8033   14.4854 C.ar    1  UNL1        0.0612
      6 C          63.7662   86.4159   14.9876 C.ar    1  UNL1        0.1374
      7 N          63.2714   86.2083   16.3884 N.ar    1  UNL1       -0.2449
      8 C          63.9913   85.2360   14.0891 C.2     1  UNL1        0.2684
      9 O          65.3147   84.5300   14.0955 O.2     1  UNL1       -0.2681
     10 N          62.8928   84.7621   13.1842 N.am    1  UNL1       -0.2645
     11 H          62.0242   85.2255   13.1800 H       1  UNL1        0.1566
     12 C          63.1178   83.5822   12.2857 C.ar    1  UNL1        0.1368
     13 C          63.7836   83.7693   10.9547 C.ar    1  UNL1        0.0346
     14 C          64.0086   82.5894   10.0563 C.ar    1  UNL1        0.0068
     15 C          63.5678   81.2224   10.4889 C.ar    1  UNL1        0.0498
     16 C          62.9020   81.0354   11.8199 C.ar    1  UNL1        0.2234
     17 F          62.4612   79.6684   12.2525 F       1  UNL1       -0.1832
     18 N          62.6770   82.2153   12.7183 N.ar    1  UNL1       -0.2029
     19 O          64.0809   90.3706   14.8817 O.3     1  UNL1       -0.4502
     20 C          63.8698   90.6982   13.4332 C.ar    1  UNL1        0.1835
     21 C          64.8125   91.6290   12.7297 C.ar    1  UNL1        0.1396
     22 N          64.6013   91.9566   11.2812 N.ar    1  UNL1       -0.2192
     23 C          63.4475   91.3534   10.5363 C.ar    1  UNL1        0.1991
     24 N          62.5048   90.4226   11.2398 N.ar    1  UNL1       -0.2192
     25 C          62.7160   90.0950   12.6883 C.ar    1  UNL1        0.1396
@<TRIPOS>BOND
     1     1     2    1
     2     2     3   ar
     3     3     4   ar
     4     4    19    1
     5    19    20    1
     6    20    21   ar
     7    21    22   ar
     8    22    23   ar
     9    23    24   ar
    10    24    25   ar
    11     4     5   ar
    12     5     6   ar
    13     6     8    1
    14     8     9    2
    15     8    10   am
    16    10    12    1
    17    12    13   ar
    18    13    14   ar
    19    14    15   ar
    20    15    16   ar
    21    16    17    1
    22    16    18   ar
    23     6     7   ar
    24     7     2   ar
    25    25    20   ar
    26    18    12   ar
    27    10    11    1
@<TRIPOS>MOLECULE
*****
 25 27 0 0 0
SMALL
GASTEIGER

@<TRIPOS>ATOM
      1 C          62.6513   87.3788   18.6729 C.3     1  UNL1        0.0522
      2 C          63.0686   87.5812   17.2464 C.ar    1  UNL1        0.0625
      3 C          63.2441   88.9694   16.7060 C.ar    1  UNL1        0.0522
      4 C          63.6613   89.1717   15.2795 C.ar    1  UNL1        0.1483
      5 C          63.9031   87.9859   14.3934 C.ar    1  UNL1        0.0612
      6 C          63.7276   86.5977   14.9338 C.ar    1  UNL1        0.1374
      7 N          63.3104   86.3953   16.3603 N.ar    1  UNL1       -0.2449
      8 C          63.9694   85.4117   14.0476 C.2     1  UNL1        0.2684
      9 O          65.2935   84.7077   14.0816 O.2     1  UNL1       -0.2681
     10 N          62.8871   84.9299   13.1276 N.am    1  UNL1       -0.2645
     11 H          62.0181   85.3920   13.1053 H       1  UNL1        0.1566
     12 C          63.1289   83.7440   12.2414 C.ar    1  UNL1        0.1368
     13 C          63.7760   83.9289   10.9009 C.ar    1  UNL1        0.0346
     14 C          64.0177   82.7430   10.0149 C.ar    1  UNL1        0.0068
     15 C          63.6124   81.3722   10.4693 C.ar    1  UNL1        0.0498
     16 C          62.9653   81.1873   11.8099 C.ar    1  UNL1        0.2234
     17 F          62.5600   79.8164   12.2643 F       1  UNL1       -0.1832
     18 N          62.7236   82.3732   12.6959 N.ar    1  UNL1       -0.2029
     19 O          63.8368   90.5600   14.7391 O.3     1  UNL1       -0.4502
     20 C          65.1067   91.3131   15.0044 C.ar    1  UNL1        0.1835
     21 C          65.2666   92.0886   16.2784 C.ar    1  UNL1        0.1396
     22 N          66.5364   92.8417   16.5437 N.ar    1  UNL1       -0.2192
     23 C          67.6464   92.8192   15.5349 C.ar    1  UNL1        0.1991
     24 N          67.4864   92.0438   14.2609 N.ar    1  UNL1       -0.2192
     25 C          66.2166   91.2907   13.9957 C.ar    1  UNL1        0.1396
@<TRIPOS>BOND
     1     1     2    1
     2     2     3   ar
     3     3     4   ar
     4     4    19    1
     5    19    20    1
     6    20    21   ar
     7    21    22   ar
     8    22    23   ar
     9    23    24   ar
    10    24    25   ar
    11     4     5   ar
    12     5     6   ar
    13     6     8    1
    14     8     9    2
    15     8    10   am
    16    10    12    1
    17    12    13   ar
    18    13    14   ar
    19    14    15   ar
    20    15    16   ar
    21    16    17    1
    22    16    18   ar
    23     6     7   ar
    24     7     2   ar
    25    25    20   ar
    26    18    12   ar
    27    10    11    1
@<TRIPOS>MOLECULE
*****
 25 27 0 0 0
SMALL
GASTEIGER

@<TRIPOS>ATOM
      1 C          59.7456   89.0095    7.8903 C.3     1  UNL1        0.0522
      2 C          60.6057   88.7624    9.0941 C.ar    1  UNL1        0.0625
      3 C          60.5378   87.4441    9.8065 C.ar    1  UNL1        0.0522
      4 C          61.3980   87.1970   11.0103 C.ar    1  UNL1        0.1483
      5 C          62.3260   88.2680   11.5017 C.ar    1  UNL1        0.0612
      6 C          62.3939   89.5863   10.7893 C.ar    1  UNL1        0.1374
      7 N          61.5338   89.8334    9.5855 N.ar    1  UNL1       -0.2449
      8 C          63.3219   90.6575   11.2807 C.2     1  UNL1        0.2684
      9 O          63.6583   91.8218   10.3968 O.2     1  UNL1       -0.2681
     10 N          63.9136   90.5643   12.6558 N.am    1  UNL1       -0.2645
     11 H          63.6928   89.8001   13.2360 H       1  UNL1        0.1566
     12 C          64.8417   91.6355   13.1472 C.ar    1  UNL1        0.1368
     13 C          65.4304   92.6193   12.1801 C.ar    1  UNL1        0.0346
     14 C          66.3584   93.6904   12.6715 C.ar    1  UNL1        0.0068
     15 C          66.6976   93.7777   14.1300 C.ar    1  UNL1        0.0498
     16 C          66.1089   92.7939   15.0972 C.ar    1  UNL1        0.2234
     17 F          66.4481   92.8811   16.5557 F       1  UNL1       -0.1832
     18 N          65.1809   91.7228   14.6058 N.ar    1  UNL1       -0.2029
     19 O          61.3300   85.8786   11.7227 O.3     1  UNL1       -0.4502
     20 C          62.4316   84.8752   11.5501 C.ar    1  UNL1        0.1835
     21 C          62.8830   84.4864   10.1734 C.ar    1  UNL1        0.1396
     22 N          63.9845   83.4830   10.0008 N.ar    1  UNL1       -0.2192
     23 C          64.6347   82.8684   11.2048 C.ar    1  UNL1        0.1991
     24 N          64.1832   83.2572   12.5814 N.ar    1  UNL1       -0.2192
     25 C          63.0817   84.2606   12.7540 C.ar    1  UNL1        0.1396
@<TRIPOS>BOND
     1     1     2    1
     2     2     3   ar
     3     3     4   ar
     4     4    19    1
     5    19    20    1
     6    20    21   ar
     7    21    22   ar
     8    22    23   ar
     9    23    24   ar
    10    24    25   ar
    11     4     5   ar
    12     5     6   ar
    13     6     8    1
    14     8     9    2
    15     8    10   am
    16    10    12    1
    17    12    13   ar
    18    13    14   ar
    19    14    15   ar
    20    15    16   ar
    21    16    17    1
    22    16    18   ar
    23     6     7   ar
    24     7     2   ar
    25    25    20   ar
    26    18    12   ar
    27    10    11    1
