@<TRIPOS>MOLECULE
*****
 34 38 0 0 0
SMALL
GASTEIGER

@<TRIPOS>ATOM
      1 N          59.6351   89.2732    7.2085 N.ar    1  UNL1       -0.2286
      2 C          59.6410   87.7735    7.1830 C.ar    1  UNL1        0.0990
      3 C          60.4019   87.2925    8.3828 C.ar    1  UNL1        0.0338
      4 C          60.8663   88.4950    9.1499 C.ar    1  UNL1        0.0981
      5 N          60.3923   89.7192    8.4241 N.ar    1  UNL1       -0.1680
      6 C          61.6272   88.0140   10.3497 C.3     1  UNL1        0.1414
      7 N          61.6332   86.5142   10.3242 N.am    1  UNL1       -0.2661
      8 C          62.2824   85.6177   11.3365 C.2     1  UNL1        0.2496
      9 O          62.2049   84.1281   11.1784 O.2     1  UNL1       -0.2699
     10 C          60.8759   86.0683    9.1086 C.3     1  UNL1        0.1236
     11 C          60.0258   92.8188    3.4302 C.3     1  UNL1        0.0521
     12 C          59.1812   91.9426    4.3070 C.ar    1  UNL1        0.0609
     13 C          59.8304   91.0460    5.3193 C.ar    1  UNL1        0.0339
     14 C          58.9859   90.1697    6.1962 C.ar    1  UNL1        0.0855
     15 C          57.4921   90.1899    6.0607 C.ar    1  UNL1        0.0398
     16 C          56.8430   91.0865    5.0483 C.ar    1  UNL1        0.1000
     17 N          57.6875   91.9628    4.1715 N.ar    1  UNL1       -0.2480
     18 C          63.0091   86.2109   12.5070 C.ar    1  UNL1        0.0549
     19 C          63.1760   87.6979   12.6109 C.ar    1  UNL1        0.0229
     20 C          63.9028   88.2911   13.7815 C.ar    1  UNL1        0.1059
     21 C          64.4626   87.3972   14.8480 C.ar    1  UNL1        0.0183
     22 C          64.2957   85.9101   14.7441 C.ar    1  UNL1        0.0015
     23 C          63.5689   85.3170   13.5736 C.ar    1  UNL1        0.0045
     24 C          63.4020   83.8299   13.4697 C.ar    1  UNL1        0.0024
     25 C          64.4364   83.0068   12.7608 C.ar    1  UNL1        0.0001
     26 C          64.2695   81.5198   12.6569 C.ar    1  UNL1        0.0023
     27 C          63.0682   80.8559   13.2618 C.ar    1  UNL1        0.0296
     28 C          62.0337   81.6788   13.9707 C.ar    1  UNL1        0.1401
     29 F          60.8324   81.0149   14.5757 F       1  UNL1       -0.2042
     30 C          62.2006   83.1659   14.0747 C.ar    1  UNL1        0.0296
     31 S          64.0696   89.7781   13.8853 S.O2    1  UNL1        0.0105
     32 C          64.2365   91.2652   13.9893 C.3     1  UNL1        0.1816
     33 O          64.3202   89.6471   15.3585 O.2     1  UNL1       -0.1686
     34 O          63.8191   89.9092   12.4122 O.2     1  UNL1       -0.1686
@<TRIPOS>BOND
     1    11    12    1
     2    12    13   ar
     3    13    14   ar
     4    14     1    1
     5     1     2   ar
     6     2     3   ar
     7     3     4   ar
     8     4     5   ar
     9     4     6    1
    10     6     7    1
    11     7     8   am
    12     8     9    2
    13     8    18    1
    14    18    19   ar
    15    19    20   ar
    16    20    31    1
    17    31    32    1
    18    31    33    2
    19    31    34    2
    20    20    21   ar
    21    21    22   ar
    22    22    23   ar
    23    23    24    1
    24    24    25   ar
    25    25    26   ar
    26    26    27   ar
    27    27    28   ar
    28    28    29    1
    29    28    30   ar
    30     7    10    1
    31    14    15   ar
    32    15    16   ar
    33    16    17   ar
    34    17    12   ar
    35     5     1   ar
    36    23    18   ar
    37    30    24   ar
    38    10     3    1
@<TRIPOS>MOLECULE
*****
 34 38 0 0 0
SMALL
GASTEIGER

@<TRIPOS>ATOM
      1 N          63.0802   83.7565   13.6804 N.ar    1  UNL1       -0.2286
      2 C          62.4886   84.4021   14.8983 C.ar    1  UNL1        0.0990
      3 C          62.9250   85.8370   14.9205 C.ar    1  UNL1        0.0338
      4 C          63.7862   86.0783   13.7163 C.ar    1  UNL1        0.0981
      5 N          63.8822   84.7925   12.9499 N.ar    1  UNL1       -0.1680
      6 C          64.2226   87.5133   13.7385 C.3     1  UNL1        0.1414
      7 N          63.6310   88.1589   14.9565 N.am    1  UNL1       -0.2661
      8 C          63.8099   89.5892   15.3710 C.2     1  UNL1        0.2496
      9 O          63.1535   90.0955   16.6212 O.2     1  UNL1       -0.2699
     10 C          62.8290   87.1229   15.6869 C.3     1  UNL1        0.1236
     11 C          63.0844   80.1102    9.9785 C.3     1  UNL1        0.0521
     12 C          62.9034   80.5029   11.4148 C.ar    1  UNL1        0.0609
     13 C          63.0823   81.9333   11.8295 C.ar    1  UNL1        0.0339
     14 C          62.9012   82.3261   13.2658 C.ar    1  UNL1        0.0855
     15 C          62.5413   81.2885   14.2875 C.ar    1  UNL1        0.0398
     16 C          62.3623   79.8581   13.8727 C.ar    1  UNL1        0.1000
     17 N          62.5434   79.4653   12.4364 N.ar    1  UNL1       -0.2480
     18 C          64.6453   90.5134   14.5355 C.ar    1  UNL1        0.0549
     19 C          65.8694   91.1531   15.1206 C.ar    1  UNL1        0.0229
     20 C          66.7048   92.0774   14.2850 C.ar    1  UNL1        0.1059
     21 C          66.3160   92.3618   12.8646 C.ar    1  UNL1        0.0183
     22 C          65.0919   91.7221   12.2794 C.ar    1  UNL1        0.0015
     23 C          64.2565   90.7979   13.1149 C.ar    1  UNL1        0.0045
     24 C          63.0324   90.1582   12.5299 C.ar    1  UNL1        0.0024
     25 C          61.7142   90.2765   13.2357 C.ar    1  UNL1        0.0001
     26 C          60.4901   89.6368   12.6507 C.ar    1  UNL1        0.0023
     27 C          60.5842   88.8787   11.3598 C.ar    1  UNL1        0.0296
     28 C          61.9024   88.7603   10.6539 C.ar    1  UNL1        0.1401
     29 F          61.9965   88.0021    9.3630 F       1  UNL1       -0.2042
     30 C          63.1266   89.4000   11.2389 C.ar    1  UNL1        0.0296
     31 S          67.9288   92.7171   14.8702 S.O2    1  UNL1        0.0105
     32 C          69.1528   93.3568   15.4555 C.3     1  UNL1        0.1816
     33 O          67.1467   93.0948   16.0932 O.2     1  UNL1       -0.1686
     34 O          68.7110   92.3393   13.6473 O.2     1  UNL1       -0.1686
@<TRIPOS>BOND
     1    11    12    1
     2    12    13   ar
     3    13    14   ar
     4    14     1    1
     5     1     2   ar
     6     2     3   ar
     7     3     4   ar
     8     4     5   ar
     9     4     6    1
    10     6     7    1
    11     7     8   am
    12     8     9    2
    13     8    18    1
    14    18    19   ar
    15    19    20   ar
    16    20    31    1
    17    31    32    1
    18    31    33    2
    19    31    34    2
    20    20    21   ar
    21    21    22   ar
    22    22    23   ar
    23    23    24    1
    24    24    25   ar
    25    25    26   ar
    26    26    27   ar
    27    27    28   ar
    28    28    29    1
    29    28    30   ar
    30     7    10    1
    31    14    15   ar
    32    15    16   ar
    33    16    17   ar
    34    17    12   ar
    35     5     1   ar
    36    23    18   ar
    37    30    24   ar
    38    10     3    1
