@<TRIPOS>MOLECULE
*****
 29 31 0 0 0
SMALL
GASTEIGER

@<TRIPOS>ATOM
      1 C          63.6866   87.2243   13.4776 C.ar    1  UNL1       -0.0000
      2 C          64.2007   86.4462   14.6524 C.ar    1  UNL1       -0.0002
      3 C          63.8670   84.9905   14.7919 C.ar    1  UNL1       -0.0017
      4 C          63.0192   84.3128   13.7565 C.ar    1  UNL1        0.0070
      5 C          62.5051   85.0909   12.5817 C.ar    1  UNL1       -0.0017
      6 C          62.8388   86.5467   12.4422 C.ar    1  UNL1       -0.0002
      7 C          64.6876   91.5916   13.0592 C.ar    1  UNL1        0.0503
      8 C          65.2229   90.8073   14.2203 C.ar    1  UNL1        0.0147
      9 C          64.8892   89.3516   14.3598 C.ar    1  UNL1        0.0013
     10 C          64.0203   88.6801   13.3381 C.ar    1  UNL1        0.0001
     11 C          63.4850   89.4643   12.1769 C.ar    1  UNL1        0.0013
     12 C          63.8187   90.9201   12.0374 C.ar    1  UNL1        0.0147
     13 C          66.2666   94.9616   11.6808 C.3     1  UNL1        0.0949
     14 C          65.9329   93.5058   11.8203 C.2     1  UNL1        0.2266
     15 O          66.5109   92.5086   10.8603 O.2     1  UNL1       -0.2748
     16 N          65.0213   93.0473   12.9197 N.am    1  UNL1       -0.2839
     17 H          64.6420   93.7018   13.5497 H       1  UNL1        0.1549
     18 C          62.6855   82.8571   13.8960 C.3     1  UNL1        0.1410
     19 O          62.0872   83.1235   15.2454 O.3     1  UNL1       -0.3771
     20 H          62.1617   84.0685   15.4513 H       1  UNL1        0.2112
     21 C          63.2838   82.5906   12.5465 C.ar    1  UNL1        0.0825
     22 C          64.6608   82.9831   12.0995 C.ar    1  UNL1        0.1157
     23 N          64.8382   82.5200   10.6838 N.ar    1  UNL1       -0.2228
     24 C          63.5708   81.8413   10.2559 C.ar    1  UNL1        0.1749
     25 N          62.6101   81.8850   11.4071 N.ar    1  UNL1       -0.3361
     26 H          61.6977   81.5154   11.4137 H       1  UNL1        0.1673
     27 C          62.3518   81.4013   14.0354 C.3     1  UNL1        0.0340
     28 C          60.9206   80.9677   14.1515 C.3     1  UNL1        0.0031
     29 C          63.4494   80.3792   14.0589 C.3     1  UNL1        0.0031
@<TRIPOS>BOND
     1    13    14    1
     2    14    15    2
     3    14    16   am
     4    16     7    1
     5     7     8   ar
     6     8     9   ar
     7     9    10   ar
     8    10     1    1
     9     1     2   ar
    10     2     3   ar
    11     3     4   ar
    12     4    18    1
    13    18    19    1
    14    18    21    1
    15    21    22   ar
    16    22    23   ar
    17    23    24   ar
    18    24    25   ar
    19    18    27    1
    20    27    28    1
    21    27    29    1
    22     4     5   ar
    23     5     6   ar
    24    10    11   ar
    25    11    12   ar
    26    12     7   ar
    27     6     1   ar
    28    25    21   ar
    29    16    17    1
    30    19    20    1
    31    25    26    1
@<TRIPOS>MOLECULE
*****
 29 31 0 0 0
SMALL
GASTEIGER

@<TRIPOS>ATOM
      1 C          63.5727   90.8562   12.0186 C.ar    1  UNL1       -0.0000
      2 C          63.5191   91.2268   10.5661 C.ar    1  UNL1       -0.0002
      3 C          62.5626   90.5254    9.6480 C.ar    1  UNL1       -0.0017
      4 C          61.6597   89.4534   10.1822 C.ar    1  UNL1        0.0070
      5 C          61.7133   89.0828   11.6347 C.ar    1  UNL1       -0.0017
      6 C          62.6698   89.7842   12.5529 C.ar    1  UNL1       -0.0002
      7 C          66.4423   92.9605   14.7732 C.ar    1  UNL1        0.0503
      8 C          65.6200   91.8134   15.2809 C.ar    1  UNL1        0.0147
      9 C          64.6634   91.1119   14.3627 C.ar    1  UNL1        0.0013
     10 C          64.5292   91.5577   12.9368 C.ar    1  UNL1        0.0001
     11 C          65.3515   92.7048   12.4291 C.ar    1  UNL1        0.0013
     12 C          66.3080   93.4062   13.3473 C.ar    1  UNL1        0.0147
     13 C          69.8341   94.2040   16.4159 C.3     1  UNL1        0.0949
     14 C          68.8776   93.5026   15.4978 C.2     1  UNL1        0.2266
     15 O          69.4000   92.6417   14.3859 O.2     1  UNL1       -0.2748
     16 N          67.3988   93.6620   15.6914 N.am    1  UNL1       -0.2839
     17 H          67.0559   94.2269   16.4211 H       1  UNL1        0.1549
     18 C          60.7031   88.7519    9.2641 C.3     1  UNL1        0.1410
     19 O          60.0853   90.0697    8.9011 O.3     1  UNL1       -0.3771
     20 H          60.5352   90.7814    9.3826 H       1  UNL1        0.2112
     21 C          61.3210   87.4342    9.6270 C.ar    1  UNL1        0.0825
     22 C          62.3516   86.6935    8.8274 C.ar    1  UNL1        0.1157
     23 N          62.6843   85.4273    9.5596 N.ar    1  UNL1       -0.2228
     24 C          61.8594   85.3854   10.8117 C.ar    1  UNL1        0.1749
     25 N          61.0169   86.6257   10.8534 N.ar    1  UNL1       -0.3361
     26 H          60.3767   86.8668   11.5613 H       1  UNL1        0.1673
     27 C          59.7466   88.0505    8.3459 C.3     1  UNL1        0.0340
     28 C          59.1905   86.7098    8.7242 C.3     1  UNL1        0.0031
     29 C          59.3463   88.6898    7.0494 C.3     1  UNL1        0.0031
@<TRIPOS>BOND
     1    13    14    1
     2    14    15    2
     3    14    16   am
     4    16     7    1
     5     7     8   ar
     6     8     9   ar
     7     9    10   ar
     8    10     1    1
     9     1     2   ar
    10     2     3   ar
    11     3     4   ar
    12     4    18    1
    13    18    19    1
    14    18    21    1
    15    21    22   ar
    16    22    23   ar
    17    23    24   ar
    18    24    25   ar
    19    18    27    1
    20    27    28    1
    21    27    29    1
    22     4     5   ar
    23     5     6   ar
    24    10    11   ar
    25    11    12   ar
    26    12     7   ar
    27     6     1   ar
    28    25    21   ar
    29    16    17    1
    30    19    20    1
    31    25    26    1
@<TRIPOS>MOLECULE
*****
 29 31 0 0 0
SMALL
GASTEIGER

@<TRIPOS>ATOM
      1 C          63.5715   90.8580   12.0201 C.ar    1  UNL1       -0.0000
      2 C          62.6642   89.7909   12.5567 C.ar    1  UNL1       -0.0002
      3 C          61.7079   89.0883   11.6390 C.ar    1  UNL1       -0.0017
      4 C          61.6591   89.4529   10.1849 C.ar    1  UNL1        0.0070
      5 C          62.5664   90.5200    9.6483 C.ar    1  UNL1       -0.0017
      6 C          63.5227   91.2226   10.5659 C.ar    1  UNL1       -0.0002
      7 C          66.4402   92.9657   14.7730 C.ar    1  UNL1        0.0503
      8 C          66.3083   93.4080   13.3458 C.ar    1  UNL1        0.0147
      9 C          65.3520   92.7055   12.4282 C.ar    1  UNL1        0.0013
     10 C          64.5278   91.5605   12.9377 C.ar    1  UNL1        0.0001
     11 C          64.6597   91.1182   14.3649 C.ar    1  UNL1        0.0013
     12 C          65.6160   91.8207   15.2825 C.ar    1  UNL1        0.0147
     13 C          69.8316   94.2109   16.4154 C.3     1  UNL1        0.0949
     14 C          68.8754   93.5084   15.4978 C.2     1  UNL1        0.2266
     15 O          69.3982   92.6460   14.3873 O.2     1  UNL1       -0.2748
     16 N          67.3965   93.6682   15.6906 N.am    1  UNL1       -0.2839
     17 H          67.0534   94.2342   16.4194 H       1  UNL1        0.1549
     18 C          60.7028   88.7503    9.2672 C.3     1  UNL1        0.1410
     19 O          60.0851   90.0677    8.9023 O.3     1  UNL1       -0.3771
     20 H          60.5350   90.7799    9.3832 H       1  UNL1        0.2112
     21 C          61.3205   87.4330    9.6321 C.ar    1  UNL1        0.0825
     22 C          62.3509   86.6910    8.8336 C.ar    1  UNL1        0.1157
     23 N          62.6835   85.4258    9.5675 N.ar    1  UNL1       -0.2228
     24 C          61.8586   85.3859   10.8198 C.ar    1  UNL1        0.1749
     25 N          61.0163   86.6264   10.8597 N.ar    1  UNL1       -0.3361
     26 H          60.3761   86.8687   11.5673 H       1  UNL1        0.1673
     27 C          59.7466   88.0478    8.3496 C.3     1  UNL1        0.0340
     28 C          59.1883   86.7087    8.7306 C.3     1  UNL1        0.0031
     29 C          59.3486   88.6843    7.0510 C.3     1  UNL1        0.0031
@<TRIPOS>BOND
     1    13    14    1
     2    14    15    2
     3    14    16   am
     4    16     7    1
     5     7     8   ar
     6     8     9   ar
     7     9    10   ar
     8    10     1    1
     9     1     2   ar
    10     2     3   ar
    11     3     4   ar
    12     4    18    1
    13    18    19    1
    14    18    21    1
    15    21    22   ar
    16    22    23   ar
    17    23    24   ar
    18    24    25   ar
    19    18    27    1
    20    27    28    1
    21    27    29    1
    22     4     5   ar
    23     5     6   ar
    24    10    11   ar
    25    11    12   ar
    26    12     7   ar
    27     6     1   ar
    28    25    21   ar
    29    16    17    1
    30    19    20    1
    31    25    26    1
@<TRIPOS>MOLECULE
*****
 29 31 0 0 0
SMALL
GASTEIGER

@<TRIPOS>ATOM
      1 C          64.2459   90.8719   12.4738 C.ar    1  UNL1       -0.0000
      2 C          63.8030   91.3946   11.1394 C.ar    1  UNL1       -0.0002
      3 C          62.8571   90.5922   10.2960 C.ar    1  UNL1       -0.0017
      4 C          62.3541   89.2671   10.7869 C.ar    1  UNL1        0.0070
      5 C          62.7970   88.7444   12.1212 C.ar    1  UNL1       -0.0017
      6 C          63.7429   89.5468   12.9647 C.ar    1  UNL1       -0.0002
      7 C          67.0837   93.2790   15.0041 C.ar    1  UNL1        0.0503
      8 C          66.7164   93.7546   13.6298 C.ar    1  UNL1        0.0147
      9 C          65.7705   92.9523   12.7863 C.ar    1  UNL1        0.0013
     10 C          65.1918   91.6743   13.3172 C.ar    1  UNL1        0.0001
     11 C          65.5591   91.1987   14.6916 C.ar    1  UNL1        0.0013
     12 C          66.5051   92.0010   15.5350 C.ar    1  UNL1        0.0147
     13 C          70.4566   94.7288   16.5113 C.3     1  UNL1        0.0949
     14 C          69.5107   93.9264   15.6678 C.2     1  UNL1        0.2266
     15 O          70.0459   92.9690   14.6445 O.2     1  UNL1       -0.2748
     16 N          68.0296   94.0814   15.8476 N.am    1  UNL1       -0.2839
     17 H          67.6784   94.7097   16.5192 H       1  UNL1        0.1549
     18 C          61.4081   88.4648    9.9434 C.3     1  UNL1        0.1410
     19 O          62.5567   87.9984    9.0989 O.3     1  UNL1       -0.3771
     20 H          63.3810   88.3871    9.4311 H       1  UNL1        0.2112
     21 C          60.2595   88.9311   10.7880 C.ar    1  UNL1        0.0825
     22 C          59.7122   90.3267   10.8390 C.ar    1  UNL1        0.1157
     23 N          58.5710   90.3418   11.8123 N.ar    1  UNL1       -0.2228
     24 C          58.4130   88.9555   12.3629 C.ar    1  UNL1        0.1749
     25 N          59.4565   88.0836   11.7298 N.ar    1  UNL1       -0.3361
     26 H          59.5908   87.1237   11.9021 H       1  UNL1        0.1673
     27 C          60.4622   87.6624    9.1000 C.3     1  UNL1        0.0340
     28 C          60.5076   86.1637    9.1409 C.3     1  UNL1        0.0031
     29 C          59.4709   88.3587    8.2155 C.3     1  UNL1        0.0031
@<TRIPOS>BOND
     1    13    14    1
     2    14    15    2
     3    14    16   am
     4    16     7    1
     5     7     8   ar
     6     8     9   ar
     7     9    10   ar
     8    10     1    1
     9     1     2   ar
    10     2     3   ar
    11     3     4   ar
    12     4    18    1
    13    18    19    1
    14    18    21    1
    15    21    22   ar
    16    22    23   ar
    17    23    24   ar
    18    24    25   ar
    19    18    27    1
    20    27    28    1
    21    27    29    1
    22     4     5   ar
    23     5     6   ar
    24    10    11   ar
    25    11    12   ar
    26    12     7   ar
    27     6     1   ar
    28    25    21   ar
    29    16    17    1
    30    19    20    1
    31    25    26    1
@<TRIPOS>MOLECULE
*****
 29 31 0 0 0
SMALL
GASTEIGER

@<TRIPOS>ATOM
      1 C          63.0644   88.9233   12.0424 C.ar    1  UNL1       -0.0000
      2 C          63.0796   90.4165   11.9003 C.ar    1  UNL1       -0.0002
      3 C          63.6918   91.2659   12.9743 C.ar    1  UNL1       -0.0017
      4 C          64.2888   90.6223   14.1905 C.ar    1  UNL1        0.0070
      5 C          64.2736   89.1291   14.3327 C.ar    1  UNL1       -0.0017
      6 C          63.6614   88.2797   13.2586 C.ar    1  UNL1       -0.0002
      7 C          61.2277   86.3749    8.8203 C.ar    1  UNL1        0.0503
      8 C          61.1337   87.8697    8.7390 C.ar    1  UNL1        0.0147
      9 C          61.7459   88.7192    9.8131 C.ar    1  UNL1        0.0013
     10 C          62.4521   88.0739   10.9684 C.ar    1  UNL1        0.0001
     11 C          62.5462   86.5790   11.0496 C.ar    1  UNL1        0.0013
     12 C          61.9339   85.7296    9.9756 C.ar    1  UNL1        0.0147
     13 C          60.8831   83.9166    5.7239 C.3     1  UNL1        0.0949
     14 C          61.4953   84.7661    6.7979 C.2     1  UNL1        0.2266
     15 O          62.9873   84.8561    6.9236 O.2     1  UNL1       -0.2748
     16 N          60.6155   85.5254    7.7462 N.am    1  UNL1       -0.2839
     17 H          59.6363   85.4663    7.6637 H       1  UNL1        0.1549
     18 C          64.9010   91.4718   15.2646 C.3     1  UNL1        0.1410
     19 O          63.7866   91.0970   16.1962 O.3     1  UNL1       -0.3771
     20 H          63.1732   90.4983   15.7421 H       1  UNL1        0.2112
     21 C          66.0153   91.8465   14.3330 C.ar    1  UNL1        0.0825
     22 C          66.0448   93.0441   13.4303 C.ar    1  UNL1        0.1157
     23 N          67.3435   93.0272   12.6800 N.ar    1  UNL1       -0.2228
     24 C          68.1168   91.8192   13.1190 C.ar    1  UNL1        0.1749
     25 N          67.2959   91.0895   14.1406 N.ar    1  UNL1       -0.3361
     26 H          67.5526   90.2594   14.6035 H       1  UNL1        0.1673
     27 C          65.5132   92.3212   16.3386 C.3     1  UNL1        0.0340
     28 C          64.6548   92.8764   17.4363 C.3     1  UNL1        0.0031
     29 C          66.9838   92.6156   16.3150 C.3     1  UNL1        0.0031
@<TRIPOS>BOND
     1    13    14    1
     2    14    15    2
     3    14    16   am
     4    16     7    1
     5     7     8   ar
     6     8     9   ar
     7     9    10   ar
     8    10     1    1
     9     1     2   ar
    10     2     3   ar
    11     3     4   ar
    12     4    18    1
    13    18    19    1
    14    18    21    1
    15    21    22   ar
    16    22    23   ar
    17    23    24   ar
    18    24    25   ar
    19    18    27    1
    20    27    28    1
    21    27    29    1
    22     4     5   ar
    23     5     6   ar
    24    10    11   ar
    25    11    12   ar
    26    12     7   ar
    27     6     1   ar
    28    25    21   ar
    29    16    17    1
    30    19    20    1
    31    25    26    1
@<TRIPOS>MOLECULE
*****
 29 31 0 0 0
SMALL
GASTEIGER

@<TRIPOS>ATOM
      1 C          61.4242   87.1784   10.2059 C.ar    1  UNL1       -0.0000
      2 C          61.3026   85.6856   10.2880 C.ar    1  UNL1       -0.0002
      3 C          62.0590   84.9281   11.3387 C.ar    1  UNL1       -0.0017
      4 C          62.9371   85.6634   12.3074 C.ar    1  UNL1        0.0070
      5 C          63.0587   87.1562   12.2253 C.ar    1  UNL1       -0.0017
      6 C          62.3022   87.9137   11.1746 C.ar    1  UNL1       -0.0002
      7 C          59.1548   89.4508    7.0538 C.ar    1  UNL1        0.0503
      8 C          59.8232   90.1890    8.1755 C.ar    1  UNL1        0.0147
      9 C          60.5796   89.4315    9.2262 C.ar    1  UNL1        0.0013
     10 C          60.6677   87.9359    9.1552 C.ar    1  UNL1        0.0001
     11 C          59.9994   87.1976    8.0335 C.ar    1  UNL1        0.0013
     12 C          59.2429   87.9551    6.9828 C.ar    1  UNL1        0.0147
     13 C          58.3767   91.8556    3.9941 C.3     1  UNL1        0.0949
     14 C          59.1332   91.0981    5.0448 C.2     1  UNL1        0.2266
     15 O          60.6245   91.2305    5.1373 O.2     1  UNL1       -0.2748
     16 N          58.3984   90.2083    6.0030 N.am    1  UNL1       -0.2839
     17 H          57.4196   90.1214    5.9423 H       1  UNL1        0.1549
     18 C          63.6935   84.9059   13.3581 C.3     1  UNL1        0.1410
     19 O          63.6632   86.1120   14.2494 O.3     1  UNL1       -0.3771
     20 H          63.1954   86.8338   13.8009 H       1  UNL1        0.2112
     21 C          63.7239   83.6999   12.4668 C.ar    1  UNL1        0.0825
     22 C          64.6784   83.4646   11.3338 C.ar    1  UNL1        0.1157
     23 N          64.3495   82.1366   10.7187 N.ar    1  UNL1       -0.2228
     24 C          63.1917   81.5511   11.4715 C.ar    1  UNL1        0.1749
     25 N          62.8050   82.5173   12.5518 N.ar    1  UNL1       -0.3361
     26 H          62.0761   82.3965   13.2025 H       1  UNL1        0.1673
     27 C          64.4500   84.1485   14.4088 C.3     1  UNL1        0.0340
     28 C          65.9028   84.4390   14.6431 C.3     1  UNL1        0.0031
     29 C          63.7536   83.1004   15.2253 C.3     1  UNL1        0.0031
@<TRIPOS>BOND
     1    13    14    1
     2    14    15    2
     3    14    16   am
     4    16     7    1
     5     7     8   ar
     6     8     9   ar
     7     9    10   ar
     8    10     1    1
     9     1     2   ar
    10     2     3   ar
    11     3     4   ar
    12     4    18    1
    13    18    19    1
    14    18    21    1
    15    21    22   ar
    16    22    23   ar
    17    23    24   ar
    18    24    25   ar
    19    18    27    1
    20    27    28    1
    21    27    29    1
    22     4     5   ar
    23     5     6   ar
    24    10    11   ar
    25    11    12   ar
    26    12     7   ar
    27     6     1   ar
    28    25    21   ar
    29    16    17    1
    30    19    20    1
    31    25    26    1
@<TRIPOS>MOLECULE
*****
 29 31 0 0 0
SMALL
GASTEIGER

@<TRIPOS>ATOM
      1 C          61.4357   86.3599    9.8873 C.ar    1  UNL1       -0.0000
      2 C          62.4167   85.3715    9.3302 C.ar    1  UNL1       -0.0002
      3 C          63.1089   84.4049   10.2448 C.ar    1  UNL1       -0.0017
      4 C          62.8201   84.4267   11.7165 C.ar    1  UNL1        0.0070
      5 C          61.8390   85.4152   12.2736 C.ar    1  UNL1       -0.0017
      6 C          61.1468   86.3818   11.3590 C.ar    1  UNL1       -0.0002
      7 C          59.3591   89.2598    7.1434 C.ar    1  UNL1        0.0503
      8 C          59.2735   87.7856    6.8802 C.ar    1  UNL1        0.0147
      9 C          59.9657   86.8190    7.7948 C.ar    1  UNL1        0.0013
     10 C          60.7435   87.3266    8.9727 C.ar    1  UNL1        0.0001
     11 C          60.8291   88.8008    9.2359 C.ar    1  UNL1        0.0013
     12 C          60.1369   89.7674    8.3213 C.ar    1  UNL1        0.0147
     13 C          58.7692   91.9798    4.3144 C.3     1  UNL1        0.0949
     14 C          59.4614   91.0132    5.2290 C.2     1  UNL1        0.2266
     15 O          60.9482   90.8334    5.1438 O.2     1  UNL1       -0.2748
     16 N          58.6669   90.2264    6.2288 N.am    1  UNL1       -0.2839
     17 H          57.6911   90.3444    6.2847 H       1  UNL1        0.1549
     18 C          63.5123   83.4601   12.6312 C.3     1  UNL1        0.1410
     19 O          63.5714   82.4525   11.5215 O.3     1  UNL1       -0.3771
     20 H          63.1621   82.8247   10.7247 H       1  UNL1        0.2112
     21 C          63.4531   84.4677   13.7408 C.ar    1  UNL1        0.0825
     22 C          62.5684   84.3967   14.9500 C.ar    1  UNL1        0.1157
     23 N          62.8368   85.6083   15.7926 N.ar    1  UNL1       -0.2228
     24 C          63.8874   86.4282   15.1041 C.ar    1  UNL1        0.1749
     25 N          64.2683   85.7233   13.8360 N.ar    1  UNL1       -0.3361
     26 H          64.9361   86.0307   13.1812 H       1  UNL1        0.1673
     27 C          64.2045   82.4935   13.5458 C.3     1  UNL1        0.0340
     28 C          65.3103   82.9685   14.4409 C.3     1  UNL1        0.0031
     29 C          63.7907   81.0518   13.5653 C.3     1  UNL1        0.0031
@<TRIPOS>BOND
     1    13    14    1
     2    14    15    2
     3    14    16   am
     4    16     7    1
     5     7     8   ar
     6     8     9   ar
     7     9    10   ar
     8    10     1    1
     9     1     2   ar
    10     2     3   ar
    11     3     4   ar
    12     4    18    1
    13    18    19    1
    14    18    21    1
    15    21    22   ar
    16    22    23   ar
    17    23    24   ar
    18    24    25   ar
    19    18    27    1
    20    27    28    1
    21    27    29    1
    22     4     5   ar
    23     5     6   ar
    24    10    11   ar
    25    11    12   ar
    26    12     7   ar
    27     6     1   ar
    28    25    21   ar
    29    16    17    1
    30    19    20    1
    31    25    26    1
@<TRIPOS>MOLECULE
*****
 29 31 0 0 0
SMALL
GASTEIGER

@<TRIPOS>ATOM
      1 C          71.8064   75.3969   14.3422 C.ar    1  UNL1       -0.0000
      2 C          72.9051   74.4074   14.0901 C.ar    1  UNL1       -0.0002
      3 C          72.8949   73.0808   14.7901 C.ar    1  UNL1       -0.0017
      4 C          71.7860   72.7437   15.7423 C.ar    1  UNL1        0.0070
      5 C          70.6873   73.7333   15.9944 C.ar    1  UNL1       -0.0017
      6 C          70.6975   75.0599   15.2944 C.ar    1  UNL1       -0.0002
      7 C          71.8371   79.3767   12.2422 C.ar    1  UNL1        0.0503
      8 C          72.5279   79.2211   13.5644 C.ar    1  UNL1        0.0147
      9 C          72.5177   77.8945   14.2644 C.ar    1  UNL1        0.0013
     10 C          71.8166   76.7235   13.6422 C.ar    1  UNL1        0.0001
     11 C          71.1257   76.8792   12.3200 C.ar    1  UNL1        0.0013
     12 C          71.1360   78.2058   11.6199 C.ar    1  UNL1        0.0147
     13 C          72.6268   82.1984    9.5656 C.3     1  UNL1        0.0949
     14 C          72.6166   80.8718   10.2656 C.2     1  UNL1        0.2266
     15 O          73.3758   79.7137    9.6890 O.2     1  UNL1       -0.2748
     16 N          71.8473   80.7033   11.5422 N.am    1  UNL1       -0.2839
     17 H          71.3490   81.4635   11.9206 H       1  UNL1        0.1549
     18 C          71.7758   71.4171   16.4423 C.3     1  UNL1        0.1410
     19 O          71.3689   70.7458   15.1641 O.3     1  UNL1       -0.3771
     20 H          71.2875   71.4099   14.4618 H       1  UNL1        0.2112
     21 C          72.1826   72.0885   17.7205 C.ar    1  UNL1        0.0825
     22 C          73.5633   72.5607   18.0677 C.ar    1  UNL1        0.1157
     23 N          73.5142   73.1696   19.4377 N.ar    1  UNL1       -0.2228
     24 C          72.1031   73.0736   19.9372 C.ar    1  UNL1        0.1749
     25 N          71.2801   72.4055   18.8759 N.ar    1  UNL1       -0.3361
     26 H          70.3168   72.2094   18.9285 H       1  UNL1        0.1673
     27 C          71.7655   70.0905   17.1423 C.3     1  UNL1        0.0340
     28 C          70.6322   69.7345   18.0581 C.3     1  UNL1        0.0031
     29 C          72.8887   69.1200   16.9266 C.3     1  UNL1        0.0031
@<TRIPOS>BOND
     1    13    14    1
     2    14    15    2
     3    14    16   am
     4    16     7    1
     5     7     8   ar
     6     8     9   ar
     7     9    10   ar
     8    10     1    1
     9     1     2   ar
    10     2     3   ar
    11     3     4   ar
    12     4    18    1
    13    18    19    1
    14    18    21    1
    15    21    22   ar
    16    22    23   ar
    17    23    24   ar
    18    24    25   ar
    19    18    27    1
    20    27    28    1
    21    27    29    1
    22     4     5   ar
    23     5     6   ar
    24    10    11   ar
    25    11    12   ar
    26    12     7   ar
    27     6     1   ar
    28    25    21   ar
    29    16    17    1
    30    19    20    1
    31    25    26    1
