@<TRIPOS>MOLECULE
*****
 28 30 0 0 0
SMALL
GASTEIGER

@<TRIPOS>ATOM
      1 C          65.9676   93.5499   12.0500 C.ar    1  UNL1        0.0070
      2 C          64.9269   92.6101   11.5174 C.ar    1  UNL1       -0.0017
      3 C          64.4090   91.4978   12.3802 C.ar    1  UNL1       -0.0002
      4 C          64.9318   91.3252   13.7755 C.ar    1  UNL1        0.0000
      5 C          65.9725   92.2650   14.3081 C.ar    1  UNL1       -0.0002
      6 C          66.4904   93.3773   13.4453 C.ar    1  UNL1       -0.0017
      7 C          64.4138   90.2128   14.6383 C.ar    1  UNL1        0.0012
      8 C          63.6007   90.5268   15.8590 C.ar    1  UNL1        0.0001
      9 C          63.0827   89.4144   16.7218 C.ar    1  UNL1        0.0013
     10 C          63.3779   87.9880   16.3638 C.ar    1  UNL1        0.0147
     11 C          64.1910   87.6740   15.1429 C.ar    1  UNL1        0.0503
     12 C          64.7089   88.7863   14.2802 C.ar    1  UNL1        0.0147
     13 N          64.4861   86.2475   14.7849 N.am    1  UNL1       -0.2839
     14 C          63.8487   85.6306   13.5752 C.2     1  UNL1        0.2266
     15 C          64.1438   84.2042   13.2171 C.3     1  UNL1        0.0949
     16 O          62.9163   86.4401   12.7236 O.2     1  UNL1       -0.2748
     17 H          65.0981   85.7162   15.3438 H       1  UNL1        0.1549
     18 C          66.4856   94.6623   11.1872 C.3     1  UNL1        0.1411
     19 O          65.7058   95.6544   11.9981 O.3     1  UNL1       -0.3771
     20 H          65.7265   96.5188   11.5585 H       1  UNL1        0.2112
     21 C          67.2655   93.6702   10.3764 C.ar    1  UNL1        0.0825
     22 C          67.6444   93.8153    8.9323 C.ar    1  UNL1        0.1157
     23 N          68.4165   92.5935    8.5306 N.ar    1  UNL1       -0.2228
     24 C          68.5147   91.6933    9.7265 C.ar    1  UNL1        0.1749
     25 N          67.8034   92.3587   10.8672 N.ar    1  UNL1       -0.3361
     26 H          67.7066   91.9981   11.7781 H       1  UNL1        0.1673
     27 C          66.0628   96.8207    9.8044 C.3     1  UNL1        0.0033
     28 C          67.0036   95.7746   10.3245 C.3     1  UNL1        0.0369
@<TRIPOS>BOND
     1    27    28    1
     2    28    18    1
     3    18    19    1
     4    18     1    1
     5     1     2   ar
     6     2     3   ar
     7     3     4   ar
     8     4     7    1
     9     7     8   ar
    10     8     9   ar
    11     9    10   ar
    12    10    11   ar
    13    11    13    1
    14    13    14   am
    15    14    15    1
    16    14    16    2
    17    11    12   ar
    18     4     5   ar
    19     5     6   ar
    20    18    21    1
    21    21    22   ar
    22    22    23   ar
    23    23    24   ar
    24    24    25   ar
    25     6     1   ar
    26    25    21   ar
    27    12     7   ar
    28    19    20    1
    29    13    17    1
    30    25    26    1
@<TRIPOS>MOLECULE
*****
 28 30 0 0 0
SMALL
GASTEIGER

@<TRIPOS>ATOM
      1 C          63.2147   84.2217   13.7854 C.ar    1  UNL1        0.0070
      2 C          62.6064   84.9511   12.6244 C.ar    1  UNL1       -0.0017
      3 C          62.8209   86.4277   12.4708 C.ar    1  UNL1       -0.0002
      4 C          63.6438   87.1748   13.4782 C.ar    1  UNL1        0.0000
      5 C          64.2521   86.4454   14.6391 C.ar    1  UNL1       -0.0002
      6 C          64.0376   84.9688   14.7927 C.ar    1  UNL1       -0.0017
      7 C          63.8583   88.6515   13.3245 C.ar    1  UNL1        0.0012
      8 C          63.3111   89.3681   12.1258 C.ar    1  UNL1        0.0001
      9 C          63.5257   90.8448   11.9721 C.ar    1  UNL1        0.0013
     10 C          64.2874   91.6047   13.0172 C.ar    1  UNL1        0.0147
     11 C          64.8346   90.8880   14.2160 C.ar    1  UNL1        0.0503
     12 C          64.6200   89.4114   14.3696 C.ar    1  UNL1        0.0147
     13 N          65.5963   91.6480   15.2611 N.am    1  UNL1       -0.2839
     14 C          67.0247   92.0346   15.0154 C.2     1  UNL1        0.2266
     15 C          67.7864   92.7945   16.0605 C.3     1  UNL1        0.0949
     16 O          67.6913   91.6612   13.7246 O.2     1  UNL1       -0.2748
     17 H          65.1588   91.8930   16.1083 H       1  UNL1        0.1549
     18 C          63.0002   82.7450   13.9390 C.3     1  UNL1        0.1411
     19 O          62.5163   82.9613   15.3422 O.3     1  UNL1       -0.3771
     20 H          62.4296   82.1052   15.7899 H       1  UNL1        0.2112
     21 C          63.4841   82.5288   12.5358 C.ar    1  UNL1        0.0825
     22 C          64.7586   83.0611   11.9508 C.ar    1  UNL1        0.1157
     23 N          64.8406   82.6035   10.5246 N.ar    1  UNL1       -0.2228
     24 C          63.6168   81.7883   10.2282 C.ar    1  UNL1        0.1749
     25 N          62.7784   81.7421   11.4712 N.ar    1  UNL1       -0.3361
     26 H          61.9163   81.2772   11.5708 H       1  UNL1        0.1673
     27 C          61.3936   80.7196   14.1968 C.3     1  UNL1        0.0033
     28 C          62.7857   81.2684   14.0926 C.3     1  UNL1        0.0369
@<TRIPOS>BOND
     1    27    28    1
     2    28    18    1
     3    18    19    1
     4    18     1    1
     5     1     2   ar
     6     2     3   ar
     7     3     4   ar
     8     4     7    1
     9     7     8   ar
    10     8     9   ar
    11     9    10   ar
    12    10    11   ar
    13    11    13    1
    14    13    14   am
    15    14    15    1
    16    14    16    2
    17    11    12   ar
    18     4     5   ar
    19     5     6   ar
    20    18    21    1
    21    21    22   ar
    22    22    23   ar
    23    23    24   ar
    24    24    25   ar
    25     6     1   ar
    26    25    21   ar
    27    12     7   ar
    28    19    20    1
    29    13    17    1
    30    25    26    1
@<TRIPOS>MOLECULE
*****
 28 30 0 0 0
SMALL
GASTEIGER

@<TRIPOS>ATOM
      1 C          65.1004   91.7495   13.3300 C.ar    1  UNL1        0.0070
      2 C          64.4565   92.0174   12.0020 C.ar    1  UNL1       -0.0017
      3 C          63.5534   90.9906   11.3856 C.ar    1  UNL1       -0.0002
      4 C          63.2942   89.6958   12.0972 C.ar    1  UNL1        0.0000
      5 C          63.9382   89.4278   13.4252 C.ar    1  UNL1       -0.0002
      6 C          64.8413   90.4547   14.0415 C.ar    1  UNL1       -0.0017
      7 C          62.3911   88.6689   11.4808 C.ar    1  UNL1        0.0012
      8 C          61.1017   89.0913   10.8412 C.ar    1  UNL1        0.0001
      9 C          60.1985   88.0645   10.2248 C.ar    1  UNL1        0.0013
     10 C          60.5848   86.6152   10.2479 C.ar    1  UNL1        0.0147
     11 C          61.8743   86.1929   10.8875 C.ar    1  UNL1        0.0503
     12 C          62.7773   87.2197   11.5039 C.ar    1  UNL1        0.0147
     13 N          62.2605   84.7436   10.9107 N.am    1  UNL1       -0.2839
     14 C          62.5276   84.0595   12.2187 C.2     1  UNL1        0.2266
     15 C          62.9139   82.6102   12.2418 C.3     1  UNL1        0.0949
     16 O          62.4084   84.8245   13.5033 O.2     1  UNL1       -0.2748
     17 H          62.3388   84.2415   10.0675 H       1  UNL1        0.1549
     18 C          66.0036   92.7763   13.9464 C.3     1  UNL1        0.1411
     19 O          65.4528   92.4470   15.3021 O.3     1  UNL1       -0.3771
     20 H          65.7656   93.1016   15.9460 H       1  UNL1        0.2112
     21 C          66.5544   93.1057   12.5907 C.ar    1  UNL1        0.0825
     22 C          66.3200   94.3762   11.8286 C.ar    1  UNL1        0.1157
     23 N          67.0571   94.2781   10.5258 N.ar    1  UNL1       -0.2228
     24 C          67.7471   92.9468   10.4827 C.ar    1  UNL1        0.1749
     25 N          67.4364   92.2223   11.7589 N.ar    1  UNL1       -0.3361
     26 H          67.7554   91.3245   12.0070 H       1  UNL1        0.1673
     27 C          67.9182   93.3918   15.5912 C.3     1  UNL1        0.0033
     28 C          66.9067   93.8031   14.5628 C.3     1  UNL1        0.0369
@<TRIPOS>BOND
     1    27    28    1
     2    28    18    1
     3    18    19    1
     4    18     1    1
     5     1     2   ar
     6     2     3   ar
     7     3     4   ar
     8     4     7    1
     9     7     8   ar
    10     8     9   ar
    11     9    10   ar
    12    10    11   ar
    13    11    13    1
    14    13    14   am
    15    14    15    1
    16    14    16    2
    17    11    12   ar
    18     4     5   ar
    19     5     6   ar
    20    18    21    1
    21    21    22   ar
    22    22    23   ar
    23    23    24   ar
    24    24    25   ar
    25     6     1   ar
    26    25    21   ar
    27    12     7   ar
    28    19    20    1
    29    13    17    1
    30    25    26    1
@<TRIPOS>MOLECULE
*****
 28 30 0 0 0
SMALL
GASTEIGER

@<TRIPOS>ATOM
      1 C          63.7062   90.1450   12.5607 C.ar    1  UNL1        0.0070
      2 C          63.0834   91.0070   11.5028 C.ar    1  UNL1       -0.0017
      3 C          62.2091   90.3902   10.4516 C.ar    1  UNL1       -0.0002
      4 C          61.9575   88.9115   10.4583 C.ar    1  UNL1        0.0000
      5 C          62.5803   88.0495   11.5162 C.ar    1  UNL1       -0.0002
      6 C          63.4546   88.6663   12.5674 C.ar    1  UNL1       -0.0017
      7 C          61.0831   88.2947    9.4070 C.ar    1  UNL1        0.0012
      8 C          61.1540   86.8198    9.1432 C.ar    1  UNL1        0.0001
      9 C          60.2796   86.2030    8.0919 C.ar    1  UNL1        0.0013
     10 C          59.3344   87.0612    7.3045 C.ar    1  UNL1        0.0147
     11 C          59.2635   88.5362    7.5684 C.ar    1  UNL1        0.0503
     12 C          60.1379   89.1529    8.6196 C.ar    1  UNL1        0.0147
     13 N          58.3183   89.3944    6.7810 N.am    1  UNL1       -0.2839
     14 C          58.8504   90.3473    5.7520 C.2     1  UNL1        0.2266
     15 C          57.9052   91.2055    4.9646 C.3     1  UNL1        0.0949
     16 O          60.3278   90.4421    5.5105 O.2     1  UNL1       -0.2748
     17 H          57.3486   89.3322    6.9395 H       1  UNL1        0.1549
     18 C          64.5806   90.7618   13.6120 C.3     1  UNL1        0.1411
     19 O          65.1539   91.6953   12.5875 O.3     1  UNL1       -0.3771
     20 H          65.9150   92.1627   12.9659 H       1  UNL1        0.2112
     21 C          64.0073   89.8282   14.6365 C.ar    1  UNL1        0.0825
     22 C          64.3828   88.3883   14.8254 C.ar    1  UNL1        0.1157
     23 N          63.5653   87.8408   15.9577 N.ar    1  UNL1       -0.2228
     24 C          62.6845   88.9423   16.4686 C.ar    1  UNL1        0.1749
     25 N          62.9577   90.1706   15.6520 N.ar    1  UNL1       -0.3361
     26 H          62.5242   91.0475   15.7631 H       1  UNL1        0.1673
     27 C          66.6815   92.1442   14.2641 C.3     1  UNL1        0.0033
     28 C          65.4549   91.3785   14.6632 C.3     1  UNL1        0.0369
@<TRIPOS>BOND
     1    27    28    1
     2    28    18    1
     3    18    19    1
     4    18     1    1
     5     1     2   ar
     6     2     3   ar
     7     3     4   ar
     8     4     7    1
     9     7     8   ar
    10     8     9   ar
    11     9    10   ar
    12    10    11   ar
    13    11    13    1
    14    13    14   am
    15    14    15    1
    16    14    16    2
    17    11    12   ar
    18     4     5   ar
    19     5     6   ar
    20    18    21    1
    21    21    22   ar
    22    22    23   ar
    23    23    24   ar
    24    24    25   ar
    25     6     1   ar
    26    25    21   ar
    27    12     7   ar
    28    19    20    1
    29    13    17    1
    30    25    26    1
@<TRIPOS>MOLECULE
*****
 28 30 0 0 0
SMALL
GASTEIGER

@<TRIPOS>ATOM
      1 C          61.6356   88.8534   10.3642 C.ar    1  UNL1        0.0070
      2 C          62.1178   90.0672    9.6265 C.ar    1  UNL1       -0.0017
      3 C          63.1196   90.9835   10.2641 C.ar    1  UNL1       -0.0002
      4 C          63.6393   90.6861   11.6394 C.ar    1  UNL1        0.0000
      5 C          63.1571   89.4724   12.3771 C.ar    1  UNL1       -0.0002
      6 C          62.1552   88.5561   11.7396 C.ar    1  UNL1       -0.0017
      7 C          64.6412   91.6025   12.2770 C.ar    1  UNL1        0.0012
      8 C          65.1993   91.2780   13.6309 C.ar    1  UNL1        0.0001
      9 C          66.2013   92.1945   14.2684 C.ar    1  UNL1        0.0013
     10 C          66.6450   93.4354   13.5520 C.ar    1  UNL1        0.0147
     11 C          66.0868   93.7598   12.1980 C.ar    1  UNL1        0.0503
     12 C          65.0849   92.8434   11.5605 C.ar    1  UNL1        0.0147
     13 N          66.5305   95.0007   11.4816 N.am    1  UNL1       -0.2839
     14 C          67.0855   94.9062   10.0912 C.2     1  UNL1        0.2266
     15 C          67.5292   96.1470    9.3747 C.3     1  UNL1        0.0949
     16 O          67.1966   93.5707    9.4172 O.2     1  UNL1       -0.2748
     17 H          66.4576   95.8772   11.9239 H       1  UNL1        0.1549
     18 C          60.6337   87.9370    9.7267 C.3     1  UNL1        0.1411
     19 O          59.8057   89.1215    9.3251 O.3     1  UNL1       -0.3771
     20 H          58.9472   88.8177    8.9910 H       1  UNL1        0.2112
     21 C          61.4616   86.7525   10.1283 C.ar    1  UNL1        0.0825
     22 C          62.4840   86.0615    9.2754 C.ar    1  UNL1        0.1157
     23 N          63.0669   84.9328   10.0733 N.ar    1  UNL1       -0.2228
     24 C          62.4048   84.9264   11.4193 C.ar    1  UNL1        0.1749
     25 N          61.4127   86.0510   11.4533 N.ar    1  UNL1       -0.3361
     26 H          60.8315   86.2872   12.2120 H       1  UNL1        0.1673
     27 C          59.1797   87.2673    7.6804 C.3     1  UNL1        0.0033
     28 C          59.6318   87.0206    9.0892 C.3     1  UNL1        0.0369
@<TRIPOS>BOND
     1    27    28    1
     2    28    18    1
     3    18    19    1
     4    18     1    1
     5     1     2   ar
     6     2     3   ar
     7     3     4   ar
     8     4     7    1
     9     7     8   ar
    10     8     9   ar
    11     9    10   ar
    12    10    11   ar
    13    11    13    1
    14    13    14   am
    15    14    15    1
    16    14    16    2
    17    11    12   ar
    18     4     5   ar
    19     5     6   ar
    20    18    21    1
    21    21    22   ar
    22    22    23   ar
    23    23    24   ar
    24    24    25   ar
    25     6     1   ar
    26    25    21   ar
    27    12     7   ar
    28    19    20    1
    29    13    17    1
    30    25    26    1
@<TRIPOS>MOLECULE
*****
 28 30 0 0 0
SMALL
GASTEIGER

@<TRIPOS>ATOM
      1 C          65.0116   91.7219   13.1086 C.ar    1  UNL1        0.0070
      2 C          64.4544   92.0730   11.7609 C.ar    1  UNL1       -0.0017
      3 C          63.4881   91.1465   11.0843 C.ar    1  UNL1       -0.0002
      4 C          63.0790   89.8688   11.7554 C.ar    1  UNL1        0.0000
      5 C          63.6362   89.5177   13.1031 C.ar    1  UNL1       -0.0002
      6 C          64.6025   90.4443   13.7796 C.ar    1  UNL1       -0.0017
      7 C          62.1127   88.9423   11.0787 C.ar    1  UNL1        0.0012
      8 C          60.6503   89.0156   11.4042 C.ar    1  UNL1        0.0001
      9 C          59.6840   88.0891   10.7275 C.ar    1  UNL1        0.0013
     10 C          60.1801   87.0893    9.7254 C.ar    1  UNL1        0.0147
     11 C          61.6426   87.0160    9.3999 C.ar    1  UNL1        0.0503
     12 C          62.6088   87.9425   10.0766 C.ar    1  UNL1        0.0147
     13 N          62.1387   86.0162    8.3978 N.am    1  UNL1       -0.2839
     14 C          61.2137   85.4931    7.3392 C.2     1  UNL1        0.2266
     15 C          61.7099   84.4933    6.3370 C.3     1  UNL1        0.0949
     16 O          59.7926   85.9697    7.2826 O.2     1  UNL1       -0.2748
     17 H          63.0715   85.7034    8.4349 H       1  UNL1        0.1549
     18 C          65.9779   92.6484   13.7852 C.3     1  UNL1        0.1411
     19 O          65.3886   92.2903   15.1173 O.3     1  UNL1       -0.3771
     20 H          65.7393   92.8870   15.7969 H       1  UNL1        0.2112
     21 C          66.5672   93.0065   12.4532 C.ar    1  UNL1        0.0825
     22 C          66.3309   94.2811   11.6985 C.ar    1  UNL1        0.1157
     23 N          67.1140   94.2153   10.4207 N.ar    1  UNL1       -0.2228
     24 C          67.8343   92.8999   10.3858 C.ar    1  UNL1        0.1749
     25 N          67.4964   92.1529   11.6419 N.ar    1  UNL1       -0.3361
     26 H          67.8265   91.2592   11.8902 H       1  UNL1        0.1673
     27 C          67.9538   93.0303   15.4284 C.3     1  UNL1        0.0033
     28 C          66.9442   93.5749   14.4618 C.3     1  UNL1        0.0369
@<TRIPOS>BOND
     1    27    28    1
     2    28    18    1
     3    18    19    1
     4    18     1    1
     5     1     2   ar
     6     2     3   ar
     7     3     4   ar
     8     4     7    1
     9     7     8   ar
    10     8     9   ar
    11     9    10   ar
    12    10    11   ar
    13    11    13    1
    14    13    14   am
    15    14    15    1
    16    14    16    2
    17    11    12   ar
    18     4     5   ar
    19     5     6   ar
    20    18    21    1
    21    21    22   ar
    22    22    23   ar
    23    23    24   ar
    24    24    25   ar
    25     6     1   ar
    26    25    21   ar
    27    12     7   ar
    28    19    20    1
    29    13    17    1
    30    25    26    1
@<TRIPOS>MOLECULE
*****
 28 30 0 0 0
SMALL
GASTEIGER

@<TRIPOS>ATOM
      1 C          64.9388   92.7886   11.4891 C.ar    1  UNL1        0.0070
      2 C          64.4116   92.4401   10.1288 C.ar    1  UNL1       -0.0017
      3 C          63.5772   91.2079    9.9409 C.ar    1  UNL1       -0.0002
      4 C          63.2700   90.3241   11.1133 C.ar    1  UNL1        0.0000
      5 C          63.7973   90.6725   12.4736 C.ar    1  UNL1       -0.0002
      6 C          64.6317   91.9048   12.6615 C.ar    1  UNL1       -0.0017
      7 C          62.4356   89.0918   10.9253 C.ar    1  UNL1        0.0012
      8 C          61.2690   89.1126    9.9827 C.ar    1  UNL1        0.0001
      9 C          60.4346   87.8803    9.7947 C.ar    1  UNL1        0.0013
     10 C          60.7668   86.6273   10.5494 C.ar    1  UNL1        0.0147
     11 C          61.9334   86.6066   11.4920 C.ar    1  UNL1        0.0503
     12 C          62.7678   87.8388   11.6800 C.ar    1  UNL1        0.0147
     13 N          62.2657   85.3535   12.2467 N.am    1  UNL1       -0.2839
     14 C          62.9609   84.2210   11.5509 C.2     1  UNL1        0.2266
     15 C          63.2931   82.9680   12.3056 C.3     1  UNL1        0.0949
     16 O          63.3239   84.3415   10.1006 O.2     1  UNL1       -0.2748
     17 H          62.0274   85.2744   13.1987 H       1  UNL1        0.1549
     18 C          65.7733   94.0209   11.6771 C.3     1  UNL1        0.1411
     19 O          64.9915   94.7144   10.6011 O.3     1  UNL1       -0.3771
     20 H          65.4256   95.5518   10.3748 H       1  UNL1        0.2112
     21 C          66.5550   93.3273   12.7531 C.ar    1  UNL1        0.0825
     22 C          66.5039   93.6382   14.2197 C.ar    1  UNL1        0.1157
     23 N          67.4425   92.7040   14.9245 N.ar    1  UNL1       -0.2228
     24 C          68.0736   91.8158   13.8935 C.ar    1  UNL1        0.1749
     25 N          67.5251   92.2010   12.5515 N.ar    1  UNL1       -0.3361
     26 H          67.7605   91.7873   11.6897 H       1  UNL1        0.1673
     27 C          66.0556   96.5969   11.4919 C.3     1  UNL1        0.0033
     28 C          66.6077   95.2530   11.8651 C.3     1  UNL1        0.0369
@<TRIPOS>BOND
     1    27    28    1
     2    28    18    1
     3    18    19    1
     4    18     1    1
     5     1     2   ar
     6     2     3   ar
     7     3     4   ar
     8     4     7    1
     9     7     8   ar
    10     8     9   ar
    11     9    10   ar
    12    10    11   ar
    13    11    13    1
    14    13    14   am
    15    14    15    1
    16    14    16    2
    17    11    12   ar
    18     4     5   ar
    19     5     6   ar
    20    18    21    1
    21    21    22   ar
    22    22    23   ar
    23    23    24   ar
    24    24    25   ar
    25     6     1   ar
    26    25    21   ar
    27    12     7   ar
    28    19    20    1
    29    13    17    1
    30    25    26    1
@<TRIPOS>MOLECULE
*****
 28 30 0 0 0
SMALL
GASTEIGER

@<TRIPOS>ATOM
      1 C          65.1850   91.6313   13.2567 C.ar    1  UNL1        0.0070
      2 C          64.2206   90.6893   12.5991 C.ar    1  UNL1       -0.0017
      3 C          63.7715   89.4524   13.3189 C.ar    1  UNL1       -0.0002
      4 C          64.2868   89.1573   14.6963 C.ar    1  UNL1        0.0000
      5 C          65.2513   90.0992   15.3539 C.ar    1  UNL1       -0.0002
      6 C          65.7004   91.3362   14.6341 C.ar    1  UNL1       -0.0017
      7 C          63.8377   87.9203   15.4161 C.ar    1  UNL1        0.0012
      8 C          63.0339   88.0364   16.6772 C.ar    1  UNL1        0.0001
      9 C          62.5847   86.7994   17.3970 C.ar    1  UNL1        0.0013
     10 C          62.9394   85.4462   16.8556 C.ar    1  UNL1        0.0147
     11 C          63.7433   85.3301   15.5945 C.ar    1  UNL1        0.0503
     12 C          64.1924   86.5671   14.8748 C.ar    1  UNL1        0.0147
     13 N          64.0980   83.9769   15.0532 N.am    1  UNL1       -0.2839
     14 C          63.4813   83.4959   13.7731 C.2     1  UNL1        0.2266
     15 C          63.8360   82.1427   13.2318 C.3     1  UNL1        0.0949
     16 O          62.5100   84.3682   13.0344 O.2     1  UNL1       -0.2748
     17 H          64.7355   83.4044   15.5380 H       1  UNL1        0.1549
     18 C          65.6342   92.8683   12.5369 C.3     1  UNL1        0.1411
     19 O          64.5014   92.7146   11.5657 O.3     1  UNL1       -0.3771
     20 H          64.6184   93.3374   10.8313 H       1  UNL1        0.2112
     21 C          66.7669   93.0221   13.5080 C.ar    1  UNL1        0.0825
     22 C          68.0765   92.2922   13.4580 C.ar    1  UNL1        0.1157
     23 N          68.9080   92.7517   14.6189 N.ar    1  UNL1       -0.2228
     24 C          68.1123   93.7657   15.3863 C.ar    1  UNL1        0.1749
     25 N          66.7891   93.9327   14.6998 N.ar    1  UNL1       -0.3361
     26 H          66.0627   94.5344   14.9819 H       1  UNL1        0.1673
     27 C          65.6962   94.3216   10.3842 C.3     1  UNL1        0.0033
     28 C          66.0834   94.1053   11.8171 C.3     1  UNL1        0.0369
@<TRIPOS>BOND
     1    27    28    1
     2    28    18    1
     3    18    19    1
     4    18     1    1
     5     1     2   ar
     6     2     3   ar
     7     3     4   ar
     8     4     7    1
     9     7     8   ar
    10     8     9   ar
    11     9    10   ar
    12    10    11   ar
    13    11    13    1
    14    13    14   am
    15    14    15    1
    16    14    16    2
    17    11    12   ar
    18     4     5   ar
    19     5     6   ar
    20    18    21    1
    21    21    22   ar
    22    22    23   ar
    23    23    24   ar
    24    24    25   ar
    25     6     1   ar
    26    25    21   ar
    27    12     7   ar
    28    19    20    1
    29    13    17    1
    30    25    26    1
@<TRIPOS>MOLECULE
*****
 28 30 0 0 0
SMALL
GASTEIGER

@<TRIPOS>ATOM
      1 C          63.2703   84.0962   14.3085 C.ar    1  UNL1        0.0070
      2 C          63.2586   85.0912   13.1861 C.ar    1  UNL1       -0.0017
      3 C          63.4727   86.5478   13.4729 C.ar    1  UNL1       -0.0002
      4 C          63.6985   87.0095   14.8822 C.ar    1  UNL1        0.0000
      5 C          63.7102   86.0145   16.0045 C.ar    1  UNL1       -0.0002
      6 C          63.4961   84.5578   15.7177 C.ar    1  UNL1       -0.0017
      7 C          63.9126   88.4662   15.1690 C.ar    1  UNL1        0.0012
      8 C          63.3471   89.0758   16.4174 C.ar    1  UNL1        0.0001
      9 C          63.5612   90.5325   16.7042 C.ar    1  UNL1        0.0013
     10 C          64.3408   91.3796   15.7426 C.ar    1  UNL1        0.0147
     11 C          64.9063   90.7699   14.4941 C.ar    1  UNL1        0.0503
     12 C          64.6922   89.3132   14.2073 C.ar    1  UNL1        0.0147
     13 N          65.6859   91.6169   13.5324 N.am    1  UNL1       -0.2839
     14 C          65.0871   91.9949   12.2100 C.2     1  UNL1        0.2266
     15 C          65.8667   92.8419   11.2484 C.3     1  UNL1        0.0949
     16 O          63.7088   91.5257   11.8493 O.2     1  UNL1       -0.2748
     17 H          66.5905   91.9248   13.7692 H       1  UNL1        0.1549
     18 C          63.0562   82.6395   14.0216 C.3     1  UNL1        0.1411
     19 O          62.6045   82.4273   15.4362 O.3     1  UNL1       -0.3771
     20 H          62.5262   81.4765   15.6114 H       1  UNL1        0.2112
     21 C          63.5079   82.8517   12.6071 C.ar    1  UNL1        0.0825
     22 C          64.9090   82.6924   12.0957 C.ar    1  UNL1        0.1157
     23 N          64.9049   83.0027   10.6280 N.ar    1  UNL1       -0.2228
     24 C          63.5011   83.3537   10.2325 C.ar    1  UNL1        0.1749
     25 N          62.6378   83.2603   11.4556 N.ar    1  UNL1       -0.3361
     26 H          61.6700   83.4364   11.4955 H       1  UNL1        0.1673
     27 C          61.4717   80.5867   13.8630 C.3     1  UNL1        0.0033
     28 C          62.8422   81.1828   13.7348 C.3     1  UNL1        0.0369
@<TRIPOS>BOND
     1    27    28    1
     2    28    18    1
     3    18    19    1
     4    18     1    1
     5     1     2   ar
     6     2     3   ar
     7     3     4   ar
     8     4     7    1
     9     7     8   ar
    10     8     9   ar
    11     9    10   ar
    12    10    11   ar
    13    11    13    1
    14    13    14   am
    15    14    15    1
    16    14    16    2
    17    11    12   ar
    18     4     5   ar
    19     5     6   ar
    20    18    21    1
    21    21    22   ar
    22    22    23   ar
    23    23    24   ar
    24    24    25   ar
    25     6     1   ar
    26    25    21   ar
    27    12     7   ar
    28    19    20    1
    29    13    17    1
    30    25    26    1
