@<TRIPOS>MOLECULE
*****
 22 25 0 0 0
SMALL
GASTEIGER

@<TRIPOS>ATOM
      1 C          65.9851   94.1507   11.2900 C.3     1  UNL1        0.0742
      2 C          66.0158   93.5011   12.6417 C.ar    1  UNL1        0.1473
      3 N          66.7812   93.9875   13.8365 N.ar    1  UNL1       -0.1333
      4 N          66.5249   93.0381   14.9692 N.ar    1  UNL1       -0.1333
      5 C          65.6010   91.9649   14.4744 C.ar    1  UNL1        0.1472
      6 N          65.2864   92.2511   13.0360 N.ar    1  UNL1       -0.2788
      7 C          64.3764   91.3364   12.2709 C.ar    1  UNL1        0.0896
      8 C          64.0618   91.6225   10.8324 C.ar    1  UNL1        0.1558
      9 F          64.6572   92.8233   10.1590 F       1  UNL1       -0.2026
     10 C          63.1518   90.7078   10.0675 C.ar    1  UNL1        0.0312
     11 C          62.5564   89.5070   10.7409 C.ar    1  UNL1        0.0036
     12 C          62.8710   89.2208   12.1794 C.ar    1  UNL1       -0.0026
     13 C          63.7811   90.1356   12.9444 C.ar    1  UNL1       -0.0034
     14 C          64.0957   89.8494   14.3828 C.3     1  UNL1        0.0359
     15 C          65.0057   90.7641   15.1478 C.3     1  UNL1        0.0709
     16 C          61.6464   88.5923    9.9759 C.ar    1  UNL1        0.0215
     17 C          61.7344   87.1082   10.1752 C.ar    1  UNL1        0.0990
     18 N          60.8244   86.1935    9.4102 N.ar    1  UNL1       -0.2400
     19 C          59.8264   86.7629    8.4459 C.ar    1  UNL1        0.1284
     20 C          59.7385   88.2469    8.2466 C.ar    1  UNL1        0.1592
     21 F          58.7405   88.8164    7.2823 F       1  UNL1       -0.2025
     22 C          60.6484   89.1618    9.0116 C.ar    1  UNL1        0.0328
@<TRIPOS>BOND
     1     1     2    1
     2     2     3   ar
     3     3     4   ar
     4     4     5   ar
     5     5     6   ar
     6     6     7    1
     7     7     8   ar
     8     8     9    1
     9     8    10   ar
    10    10    11   ar
    11    11    16    1
    12    16    17   ar
    13    17    18   ar
    14    18    19   ar
    15    19    20   ar
    16    20    21    1
    17    20    22   ar
    18    11    12   ar
    19    12    13   ar
    20    13    14    1
    21    14    15    1
    22     6     2   ar
    23    13     7   ar
    24    15     5    1
    25    22    16   ar
@<TRIPOS>MOLECULE
*****
 22 25 0 0 0
SMALL
GASTEIGER

@<TRIPOS>ATOM
      1 C          64.8107   90.0105   14.5921 C.3     1  UNL1        0.0742
      2 C          64.0925   90.2871   13.3046 C.ar    1  UNL1        0.1473
      3 N          63.9176   91.6321   12.6639 N.ar    1  UNL1       -0.1333
      4 N          63.1401   91.4436   11.3951 N.ar    1  UNL1       -0.1333
      5 C          62.8343   89.9821   11.2517 C.ar    1  UNL1        0.1472
      6 N          63.4229   89.2674   12.4318 N.ar    1  UNL1       -0.2788
      7 C          63.2732   87.7804   12.5592 C.ar    1  UNL1        0.0896
      8 C          63.8618   87.0656   13.7393 C.ar    1  UNL1        0.1558
      9 F          64.6002   87.8379   14.7921 F       1  UNL1       -0.2026
     10 C          63.7121   85.5785   13.8666 C.ar    1  UNL1        0.0312
     11 C          62.9737   84.8062   12.8138 C.ar    1  UNL1        0.0036
     12 C          62.3851   85.5209   11.6337 C.ar    1  UNL1       -0.0026
     13 C          62.5349   87.0080   11.5063 C.ar    1  UNL1       -0.0034
     14 C          61.9463   87.7227   10.3263 C.3     1  UNL1        0.0359
     15 C          62.0960   89.2098   10.1989 C.3     1  UNL1        0.0709
     16 C          62.8240   83.3191   12.9412 C.ar    1  UNL1        0.0215
     17 C          62.5672   82.7036   14.2848 C.ar    1  UNL1        0.0990
     18 N          62.4175   81.2166   14.4123 N.ar    1  UNL1       -0.2400
     19 C          62.5246   80.3450   13.1961 C.ar    1  UNL1        0.1284
     20 C          62.7814   80.9605   11.8526 C.ar    1  UNL1        0.1592
     21 F          62.8885   80.0890   10.6364 F       1  UNL1       -0.2025
     22 C          62.9311   82.4476   11.7251 C.ar    1  UNL1        0.0328
@<TRIPOS>BOND
     1     1     2    1
     2     2     3   ar
     3     3     4   ar
     4     4     5   ar
     5     5     6   ar
     6     6     7    1
     7     7     8   ar
     8     8     9    1
     9     8    10   ar
    10    10    11   ar
    11    11    16    1
    12    16    17   ar
    13    17    18   ar
    14    18    19   ar
    15    19    20   ar
    16    20    21    1
    17    20    22   ar
    18    11    12   ar
    19    12    13   ar
    20    13    14    1
    21    14    15    1
    22     6     2   ar
    23    13     7   ar
    24    15     5    1
    25    22    16   ar
@<TRIPOS>MOLECULE
*****
 22 25 0 0 0
SMALL
GASTEIGER

@<TRIPOS>ATOM
      1 C          62.0096   89.6004    9.9244 C.3     1  UNL1        0.0742
      2 C          62.7641   89.9893   11.1611 C.ar    1  UNL1        0.1473
      3 N          63.1812   91.3798   11.5388 N.ar    1  UNL1       -0.1333
      4 N          63.9088   91.3059   12.8485 N.ar    1  UNL1       -0.1333
      5 C          63.9415   89.8697   13.2802 C.ar    1  UNL1        0.1472
      6 N          63.2340   89.0561   12.2373 N.ar    1  UNL1       -0.2788
      7 C          63.1090   87.5705   12.4024 C.ar    1  UNL1        0.0896
      8 C          62.4016   86.7567   11.3596 C.ar    1  UNL1        0.1558
      9 F          61.8190   87.4287   10.1517 F       1  UNL1       -0.2026
     10 C          62.2766   85.2711   11.5248 C.ar    1  UNL1        0.0312
     11 C          62.8591   84.5991   12.7328 C.ar    1  UNL1        0.0036
     12 C          63.5666   85.4128   13.7756 C.ar    1  UNL1       -0.0026
     13 C          63.6916   86.8985   13.6105 C.ar    1  UNL1       -0.0034
     14 C          64.3990   87.7121   14.6532 C.3     1  UNL1        0.0359
     15 C          64.5240   89.1977   14.4881 C.3     1  UNL1        0.0709
     16 C          62.7342   83.1135   12.8979 C.ar    1  UNL1        0.0215
     17 C          62.4653   82.5295   14.2531 C.ar    1  UNL1        0.0990
     18 N          62.3403   81.0439   14.4183 N.ar    1  UNL1       -0.2400
     19 C          62.4842   80.1422   13.2282 C.ar    1  UNL1        0.1284
     20 C          62.7531   80.7262   11.8730 C.ar    1  UNL1        0.1592
     21 F          62.8970   79.8246   10.6829 F       1  UNL1       -0.2025
     22 C          62.8781   82.2119   11.7077 C.ar    1  UNL1        0.0328
@<TRIPOS>BOND
     1     1     2    1
     2     2     3   ar
     3     3     4   ar
     4     4     5   ar
     5     5     6   ar
     6     6     7    1
     7     7     8   ar
     8     8     9    1
     9     8    10   ar
    10    10    11   ar
    11    11    16    1
    12    16    17   ar
    13    17    18   ar
    14    18    19   ar
    15    19    20   ar
    16    20    21    1
    17    20    22   ar
    18    11    12   ar
    19    12    13   ar
    20    13    14    1
    21    14    15    1
    22     6     2   ar
    23    13     7   ar
    24    15     5    1
    25    22    16   ar
@<TRIPOS>MOLECULE
*****
 22 25 0 0 0
SMALL
GASTEIGER

@<TRIPOS>ATOM
      1 C          62.3650   85.1553   11.7138 C.3     1  UNL1        0.0742
      2 C          61.7696   86.1670   10.7799 C.ar    1  UNL1        0.1473
      3 N          60.8628   85.8719    9.6221 N.ar    1  UNL1       -0.1333
      4 N          60.5093   87.1739    8.9666 N.ar    1  UNL1       -0.1333
      5 C          61.1976   88.2737    9.7193 C.ar    1  UNL1        0.1472
      6 N          61.9766   87.6514   10.8400 N.ar    1  UNL1       -0.2788
      7 C          62.7737   88.5168   11.7704 C.ar    1  UNL1        0.0896
      8 C          63.5526   87.8945   12.8911 C.ar    1  UNL1        0.1558
      9 F          63.5345   86.4068   13.0814 F       1  UNL1       -0.2026
     10 C          64.3497   88.7600   13.8215 C.ar    1  UNL1        0.0312
     11 C          64.3679   90.2478   13.6312 C.ar    1  UNL1        0.0036
     12 C          63.5889   90.8701   12.5105 C.ar    1  UNL1       -0.0026
     13 C          62.7918   90.0046   11.5800 C.ar    1  UNL1       -0.0034
     14 C          62.0129   90.6269   10.4594 C.3     1  UNL1        0.0359
     15 C          61.2158   89.7615    9.5290 C.3     1  UNL1        0.0709
     16 C          65.1650   91.1132   14.5616 C.ar    1  UNL1        0.0215
     17 C          64.5110   91.7180   15.7684 C.ar    1  UNL1        0.0990
     18 N          65.3080   92.5834   16.6989 N.ar    1  UNL1       -0.2400
     19 C          66.7591   92.8441   16.4225 C.ar    1  UNL1        0.1284
     20 C          67.4131   92.2393   15.2156 C.ar    1  UNL1        0.1592
     21 F          68.8642   92.4999   14.9391 F       1  UNL1       -0.2025
     22 C          66.6161   91.3738   14.2851 C.ar    1  UNL1        0.0328
@<TRIPOS>BOND
     1     1     2    1
     2     2     3   ar
     3     3     4   ar
     4     4     5   ar
     5     5     6   ar
     6     6     7    1
     7     7     8   ar
     8     8     9    1
     9     8    10   ar
    10    10    11   ar
    11    11    16    1
    12    16    17   ar
    13    17    18   ar
    14    18    19   ar
    15    19    20   ar
    16    20    21    1
    17    20    22   ar
    18    11    12   ar
    19    12    13   ar
    20    13    14    1
    21    14    15    1
    22     6     2   ar
    23    13     7   ar
    24    15     5    1
    25    22    16   ar
@<TRIPOS>MOLECULE
*****
 22 25 0 0 0
SMALL
GASTEIGER

@<TRIPOS>ATOM
      1 C          60.6665   89.4151    9.1060 C.3     1  UNL1        0.0742
      2 C          60.9480   88.0330    9.6165 C.ar    1  UNL1        0.1473
      3 N          60.3969   86.7562    9.0544 N.ar    1  UNL1       -0.1333
      4 N          60.9382   85.6191    9.8693 N.ar    1  UNL1       -0.1333
      5 C          61.8240   86.1932   10.9351 C.ar    1  UNL1        0.1472
      6 N          61.8300   87.6851   10.7789 N.ar    1  UNL1       -0.2788
      7 C          62.6378   88.5340   11.7152 C.ar    1  UNL1        0.0896
      8 C          62.6438   90.0259   11.5590 C.ar    1  UNL1        0.1558
      9 F          61.8420   90.6688   10.4664 F       1  UNL1       -0.2026
     10 C          63.4517   90.8747   12.4954 C.ar    1  UNL1        0.0312
     11 C          64.2535   90.2318   13.5879 C.ar    1  UNL1        0.0036
     12 C          64.2475   88.7400   13.7442 C.ar    1  UNL1       -0.0026
     13 C          63.4396   87.8910   12.8078 C.ar    1  UNL1       -0.0034
     14 C          63.4336   86.3993   12.9640 C.3     1  UNL1        0.0359
     15 C          62.6258   85.5503   12.0277 C.3     1  UNL1        0.0709
     16 C          65.0613   91.0808   14.5243 C.ar    1  UNL1        0.0215
     17 C          64.4136   91.6897   15.7325 C.ar    1  UNL1        0.0990
     18 N          65.2214   92.5386   16.6688 N.ar    1  UNL1       -0.2400
     19 C          66.6769   92.7787   16.3970 C.ar    1  UNL1        0.1284
     20 C          67.3246   92.1698   15.1888 C.ar    1  UNL1        0.1592
     21 F          68.7801   92.4098   14.9170 F       1  UNL1       -0.2025
     22 C          66.5168   91.3208   14.2524 C.ar    1  UNL1        0.0328
@<TRIPOS>BOND
     1     1     2    1
     2     2     3   ar
     3     3     4   ar
     4     4     5   ar
     5     5     6   ar
     6     6     7    1
     7     7     8   ar
     8     8     9    1
     9     8    10   ar
    10    10    11   ar
    11    11    16    1
    12    16    17   ar
    13    17    18   ar
    14    18    19   ar
    15    19    20   ar
    16    20    21    1
    17    20    22   ar
    18    11    12   ar
    19    12    13   ar
    20    13    14    1
    21    14    15    1
    22     6     2   ar
    23    13     7   ar
    24    15     5    1
    25    22    16   ar
@<TRIPOS>MOLECULE
*****
 22 25 0 0 0
SMALL
GASTEIGER

@<TRIPOS>ATOM
      1 C          61.9628   85.6187   10.0725 C.3     1  UNL1        0.0742
      2 C          62.4532   84.6305   11.0889 C.ar    1  UNL1        0.1473
      3 N          62.3573   83.1372   10.9845 N.ar    1  UNL1       -0.1333
      4 N          62.9704   82.5459   12.2192 N.ar    1  UNL1       -0.1333
      5 C          63.4453   83.6737   13.0867 C.ar    1  UNL1        0.1472
      6 N          63.1256   84.9621   12.3881 N.ar    1  UNL1       -0.2788
      7 C          63.4881   86.2707   13.0252 C.ar    1  UNL1        0.0896
      8 C          63.1685   87.5591   12.3267 C.ar    1  UNL1        0.1558
      9 F          62.4864   87.5388   10.9910 F       1  UNL1       -0.2026
     10 C          63.5311   88.8677   12.9639 C.ar    1  UNL1        0.0312
     11 C          64.2132   88.8880   14.2997 C.ar    1  UNL1        0.0036
     12 C          64.5329   87.5997   14.9983 C.ar    1  UNL1       -0.0026
     13 C          64.1703   86.2909   14.3610 C.ar    1  UNL1       -0.0034
     14 C          64.4900   85.0027   15.0596 C.3     1  UNL1        0.0359
     15 C          64.1274   83.6940   14.4224 C.3     1  UNL1        0.0709
     16 C          64.5758   90.1967   14.9368 C.ar    1  UNL1        0.0215
     17 C          63.6784   90.7982   15.9774 C.ar    1  UNL1        0.0990
     18 N          64.0408   92.1068   16.6147 N.ar    1  UNL1       -0.2400
     19 C          65.3007   92.8140   16.2113 C.ar    1  UNL1        0.1284
     20 C          66.1981   92.2125   15.1707 C.ar    1  UNL1        0.1592
     21 F          67.4580   92.9195   14.7672 F       1  UNL1       -0.2025
     22 C          65.8356   90.9037   14.5334 C.ar    1  UNL1        0.0328
@<TRIPOS>BOND
     1     1     2    1
     2     2     3   ar
     3     3     4   ar
     4     4     5   ar
     5     5     6   ar
     6     6     7    1
     7     7     8   ar
     8     8     9    1
     9     8    10   ar
    10    10    11   ar
    11    11    16    1
    12    16    17   ar
    13    17    18   ar
    14    18    19   ar
    15    19    20   ar
    16    20    21    1
    17    20    22   ar
    18    11    12   ar
    19    12    13   ar
    20    13    14    1
    21    14    15    1
    22     6     2   ar
    23    13     7   ar
    24    15     5    1
    25    22    16   ar
@<TRIPOS>MOLECULE
*****
 22 25 0 0 0
SMALL
GASTEIGER

@<TRIPOS>ATOM
      1 C          59.3175   89.3767    7.5233 C.3     1  UNL1        0.0742
      2 C          59.7464   87.9588    7.7594 C.ar    1  UNL1        0.1473
      3 N          59.3302   86.7656    6.9513 N.ar    1  UNL1       -0.1333
      4 N          59.9934   85.5545    7.5375 N.ar    1  UNL1       -0.1333
      5 C          60.8195   85.9993    8.7078 C.ar    1  UNL1        0.1472
      6 N          60.6669   87.4852    8.8449 N.ar    1  UNL1       -0.2788
      7 C          61.3859   88.2150    9.9405 C.ar    1  UNL1        0.0896
      8 C          61.2333   89.7010   10.0777 C.ar    1  UNL1        0.1558
      9 F          60.3617   90.4570    9.1192 F       1  UNL1       -0.2026
     10 C          61.9523   90.4307   11.1734 C.ar    1  UNL1        0.0312
     11 C          62.8238   89.6747   12.1319 C.ar    1  UNL1        0.0036
     12 C          62.9764   88.1887   11.9948 C.ar    1  UNL1       -0.0026
     13 C          62.2574   87.4589   10.8991 C.ar    1  UNL1       -0.0034
     14 C          62.4100   85.9731   10.7619 C.3     1  UNL1        0.0359
     15 C          61.6911   85.2432    9.6663 C.3     1  UNL1        0.0709
     16 C          63.5428   90.4045   13.2275 C.ar    1  UNL1        0.0215
     17 C          64.5615   91.4519   12.8881 C.ar    1  UNL1        0.0990
     18 N          65.2805   92.1817   13.9837 N.ar    1  UNL1       -0.2400
     19 C          64.9807   91.8643   15.4188 C.ar    1  UNL1        0.1284
     20 C          63.9620   90.8169   15.7582 C.ar    1  UNL1        0.1592
     21 F          63.6622   90.4994   17.1932 F       1  UNL1       -0.2025
     22 C          63.2430   90.0870   14.6626 C.ar    1  UNL1        0.0328
@<TRIPOS>BOND
     1     1     2    1
     2     2     3   ar
     3     3     4   ar
     4     4     5   ar
     5     5     6   ar
     6     6     7    1
     7     7     8   ar
     8     8     9    1
     9     8    10   ar
    10    10    11   ar
    11    11    16    1
    12    16    17   ar
    13    17    18   ar
    14    18    19   ar
    15    19    20   ar
    16    20    21    1
    17    20    22   ar
    18    11    12   ar
    19    12    13   ar
    20    13    14    1
    21    14    15    1
    22     6     2   ar
    23    13     7   ar
    24    15     5    1
    25    22    16   ar
@<TRIPOS>MOLECULE
*****
 22 25 0 0 0
SMALL
GASTEIGER

@<TRIPOS>ATOM
      1 C          64.0593   82.8528   14.3556 C.3     1  UNL1        0.0742
      2 C          63.4053   83.2359   13.0611 C.ar    1  UNL1        0.1473
      3 N          62.8614   82.2880   12.0337 N.ar    1  UNL1       -0.1333
      4 N          62.3004   83.1004   10.9044 N.ar    1  UNL1       -0.1333
      5 C          62.4976   84.5504   11.2339 C.ar    1  UNL1        0.1472
      6 N          63.1805   84.6341   12.5668 N.ar    1  UNL1       -0.2788
      7 C          63.5094   85.9728   13.1583 C.ar    1  UNL1        0.0896
      8 C          64.1923   86.0565   14.4912 C.ar    1  UNL1        0.1558
      9 F          64.5463   84.8016   15.2327 F       1  UNL1       -0.2026
     10 C          64.5212   87.3952   15.0826 C.ar    1  UNL1        0.0312
     11 C          64.1672   88.6502   14.3411 C.ar    1  UNL1        0.0036
     12 C          63.4843   88.5665   13.0082 C.ar    1  UNL1       -0.0026
     13 C          63.1554   87.2277   12.4167 C.ar    1  UNL1       -0.0034
     14 C          62.4725   87.1440   11.0839 C.3     1  UNL1        0.0359
     15 C          62.1436   85.8054   10.4925 C.3     1  UNL1        0.0709
     16 C          64.4961   89.9888   14.9326 C.ar    1  UNL1        0.0215
     17 C          63.6119   90.5787   15.9910 C.ar    1  UNL1        0.0990
     18 N          63.9408   91.9174   16.5825 N.ar    1  UNL1       -0.2400
     19 C          65.1538   92.6661   16.1156 C.ar    1  UNL1        0.1284
     20 C          66.0379   92.0762   15.0572 C.ar    1  UNL1        0.1592
     21 F          67.2510   92.8249   14.5902 F       1  UNL1       -0.2025
     22 C          65.7091   90.7375   14.4656 C.ar    1  UNL1        0.0328
@<TRIPOS>BOND
     1     1     2    1
     2     2     3   ar
     3     3     4   ar
     4     4     5   ar
     5     5     6   ar
     6     6     7    1
     7     7     8   ar
     8     8     9    1
     9     8    10   ar
    10    10    11   ar
    11    11    16    1
    12    16    17   ar
    13    17    18   ar
    14    18    19   ar
    15    19    20   ar
    16    20    21    1
    17    20    22   ar
    18    11    12   ar
    19    12    13   ar
    20    13    14    1
    21    14    15    1
    22     6     2   ar
    23    13     7   ar
    24    15     5    1
    25    22    16   ar
