@<TRIPOS>MOLECULE
*****
 35 39 0 0 0
SMALL
GASTEIGER

@<TRIPOS>ATOM
      1 O          62.5234   89.5874   11.3698 O.2     1  UNL1       -0.2526
      2 C          63.6486   90.1533   12.1845 C.2     1  UNL1        0.3044
      3 N          64.3317   91.4681   11.9510 N.am    1  UNL1       -0.2833
      4 C          65.3935   91.6310   12.9978 C.3     1  UNL1        0.1144
      5 C          65.3666   90.4170   13.8783 C.3     1  UNL1        0.1212
      6 N          64.2881   89.5036   13.3756 N.am    1  UNL1       -0.2634
      7 H          64.1203   92.1111   11.2361 H       1  UNL1        0.1515
      8 C          66.5098   92.0669   13.9001 C.ar    1  UNL1       -0.0007
      9 C          67.9325   91.9661   13.4356 C.ar    1  UNL1       -0.0001
     10 C          69.0487   92.4020   14.3378 C.ar    1  UNL1        0.0294
     11 C          68.7422   92.9387   15.7045 C.ar    1  UNL1        0.1401
     12 F          69.8585   93.3746   16.6068 F       1  UNL1       -0.2042
     13 C          67.3196   93.0396   16.1691 C.ar    1  UNL1        0.0294
     14 C          66.2034   92.6037   15.2668 C.ar    1  UNL1       -0.0001
     15 C          65.6539   92.9362   12.3060 C.ar    1  UNL1       -0.0007
     16 C          66.1046   94.1279   13.0977 C.ar    1  UNL1       -0.0001
     17 C          66.3649   95.4332   12.4058 C.ar    1  UNL1        0.0294
     18 C          66.1745   95.5467   10.9223 C.ar    1  UNL1        0.1401
     19 F          66.4348   96.8519   10.2305 F       1  UNL1       -0.2042
     20 C          65.7238   94.3551   10.1306 C.ar    1  UNL1        0.0294
     21 C          65.4635   93.0498   10.8224 C.ar    1  UNL1       -0.0001
     22 C          63.9148   88.1741   13.9613 C.3     1  UNL1        0.0797
     23 C          63.9097   87.9849   15.4493 C.3     1  UNL1        0.0372
     24 C          63.5364   86.6554   16.0350 C.3     1  UNL1        0.0741
     25 N          63.1681   85.5150   15.1327 N.3     1  UNL1       -0.2689
     26 C          63.1732   85.7043   13.6446 C.3     1  UNL1        0.0741
     27 C          63.5466   87.0339   13.0590 C.3     1  UNL1        0.0372
     28 C          62.7948   84.1856   15.7183 C.3     1  UNL1        0.0992
     29 C          62.7629   82.9647   14.8476 C.ar    1  UNL1       -0.0053
     30 C          63.9666   82.5925   14.0336 C.ar    1  UNL1       -0.0029
     31 C          63.9347   81.3715   13.1628 C.ar    1  UNL1        0.0006
     32 C          62.6992   80.5228   13.1060 C.ar    1  UNL1        0.0114
     33 C          61.4955   80.8950   13.9200 C.ar    1  UNL1        0.0574
     34 CL         60.2600   80.0464   13.8633 Cl      1  UNL1       -0.0823
     35 C          61.5274   82.1160   14.7908 C.ar    1  UNL1        0.0085
@<TRIPOS>BOND
     1     1     2    2
     2     2     3   am
     3     3     4    1
     4     4     8    1
     5     8     9   ar
     6     9    10   ar
     7    10    11   ar
     8    11    12    1
     9    11    13   ar
    10    13    14   ar
    11     4    15    1
    12    15    16   ar
    13    16    17   ar
    14    17    18   ar
    15    18    19    1
    16    18    20   ar
    17    20    21   ar
    18     4     5    1
    19     5     6    1
    20     6    22    1
    21    22    23    1
    22    23    24    1
    23    24    25    1
    24    25    28    1
    25    28    29    1
    26    29    30   ar
    27    30    31   ar
    28    31    32   ar
    29    32    33   ar
    30    33    34    1
    31    33    35   ar
    32    25    26    1
    33    26    27    1
    34     6     2   am
    35    27    22    1
    36    14     8   ar
    37    21    15   ar
    38    35    29   ar
    39     3     7    1
@<TRIPOS>MOLECULE
*****
 35 39 0 0 0
SMALL
GASTEIGER

@<TRIPOS>ATOM
      1 O          62.5253   89.5474   11.0551 O.2     1  UNL1       -0.2526
      2 C          63.6163   90.0533   11.9516 C.2     1  UNL1        0.3044
      3 N          64.3102   91.3780   11.8349 N.am    1  UNL1       -0.2833
      4 C          65.3276   91.4666   12.9334 C.3     1  UNL1        0.1144
      5 C          65.2626   90.1968   13.7291 C.3     1  UNL1        0.1212
      6 N          64.2049   89.3232   13.1223 N.am    1  UNL1       -0.2634
      7 H          64.1295   92.0681   11.1564 H       1  UNL1        0.1515
      8 C          66.4059   91.8371   13.9083 C.ar    1  UNL1       -0.0007
      9 C          67.8418   91.8356   13.4747 C.ar    1  UNL1       -0.0001
     10 C          68.9200   92.2060   14.4495 C.ar    1  UNL1        0.0294
     11 C          68.5622   92.5778   15.8580 C.ar    1  UNL1        0.1401
     12 F          69.6405   92.9482   16.8328 F       1  UNL1       -0.2042
     13 C          67.1263   92.5793   16.2916 C.ar    1  UNL1        0.0294
     14 C          66.0481   92.2089   15.3168 C.ar    1  UNL1       -0.0001
     15 C          65.6181   92.8140   12.3416 C.ar    1  UNL1       -0.0007
     16 C          65.4401   93.0406   10.8695 C.ar    1  UNL1       -0.0001
     17 C          65.7306   94.3880   10.2776 C.ar    1  UNL1        0.0294
     18 C          66.1991   95.5087   11.1578 C.ar    1  UNL1        0.1401
     19 F          66.4896   96.8559   10.5659 F       1  UNL1       -0.2042
     20 C          66.3771   95.2820   12.6298 C.ar    1  UNL1        0.0294
     21 C          66.0866   93.9346   13.2218 C.ar    1  UNL1       -0.0001
     22 C          63.8059   87.9592   13.6020 C.3     1  UNL1        0.0797
     23 C          64.1132   87.5393   15.0089 C.3     1  UNL1        0.0372
     24 C          63.7142   86.1752   15.4885 C.3     1  UNL1        0.0741
     25 N          63.0078   85.2310   14.5614 N.3     1  UNL1       -0.2689
     26 C          62.7005   85.6509   13.1545 C.3     1  UNL1        0.0741
     27 C          63.0996   87.0150   12.6749 C.3     1  UNL1        0.0372
     28 C          62.6089   83.8670   15.0411 C.3     1  UNL1        0.0992
     29 C          62.6187   82.7055   14.0920 C.ar    1  UNL1       -0.0053
     30 C          61.9624   81.4139   14.4806 C.ar    1  UNL1       -0.0029
     31 C          61.9722   80.2524   13.5315 C.ar    1  UNL1        0.0006
     32 C          62.6383   80.3825   12.1938 C.ar    1  UNL1        0.0114
     33 C          63.2946   81.6741   11.8052 C.ar    1  UNL1        0.0574
     34 CL         63.9607   81.8042   10.4675 Cl      1  UNL1       -0.0823
     35 C          63.2848   82.8356   12.7543 C.ar    1  UNL1        0.0085
@<TRIPOS>BOND
     1     1     2    2
     2     2     3   am
     3     3     4    1
     4     4     8    1
     5     8     9   ar
     6     9    10   ar
     7    10    11   ar
     8    11    12    1
     9    11    13   ar
    10    13    14   ar
    11     4    15    1
    12    15    16   ar
    13    16    17   ar
    14    17    18   ar
    15    18    19    1
    16    18    20   ar
    17    20    21   ar
    18     4     5    1
    19     5     6    1
    20     6    22    1
    21    22    23    1
    22    23    24    1
    23    24    25    1
    24    25    28    1
    25    28    29    1
    26    29    30   ar
    27    30    31   ar
    28    31    32   ar
    29    32    33   ar
    30    33    34    1
    31    33    35   ar
    32    25    26    1
    33    26    27    1
    34     6     2   am
    35    27    22    1
    36    14     8   ar
    37    21    15   ar
    38    35    29   ar
    39     3     7    1
@<TRIPOS>MOLECULE
*****
 35 39 0 0 0
SMALL
GASTEIGER

@<TRIPOS>ATOM
      1 O          73.6328   76.4614   16.3646 O.2     1  UNL1       -0.2526
      2 C          73.0268   75.4940   15.3916 C.2     1  UNL1        0.3044
      3 N          72.6931   74.0580   15.6680 N.am    1  UNL1       -0.2833
      4 C          72.1081   73.4693   14.4185 C.3     1  UNL1        0.1144
      5 C          72.0804   74.5415   13.3699 C.3     1  UNL1        0.1212
      6 N          72.6481   75.7929   13.9713 N.am    1  UNL1       -0.2634
      7 H          72.8333   73.5849   16.5199 H       1  UNL1        0.1515
      8 C          71.5025   72.6192   13.3411 C.ar    1  UNL1       -0.0007
      9 C          70.1209   72.0614   13.5137 C.ar    1  UNL1       -0.0001
     10 C          69.5153   71.2114   12.4363 C.ar    1  UNL1        0.0294
     11 C          70.2914   70.9192   11.1864 C.ar    1  UNL1        0.1401
     12 F          69.6858   70.0691   10.1090 F       1  UNL1       -0.2042
     13 C          71.6730   71.4771   11.0138 C.ar    1  UNL1        0.0294
     14 C          72.2786   72.3271   12.0912 C.ar    1  UNL1       -0.0001
     15 C          72.0093   72.2194   15.2418 C.ar    1  UNL1       -0.0007
     16 C          72.8569   71.0292   14.9030 C.ar    1  UNL1       -0.0001
     17 C          72.7581   69.7792   15.7264 C.ar    1  UNL1        0.0294
     18 C          71.8117   69.7195   16.8886 C.ar    1  UNL1        0.1401
     19 F          71.7129   68.4696   17.7119 F       1  UNL1       -0.2042
     20 C          70.9640   70.9097   17.2274 C.ar    1  UNL1        0.0294
     21 C          71.0628   72.1597   16.4040 C.ar    1  UNL1       -0.0001
     22 C          72.8090   77.1115   13.2747 C.3     1  UNL1        0.0797
     23 C          72.3066   78.3679   13.9222 C.3     1  UNL1        0.0372
     24 C          72.4675   79.6866   13.2256 C.3     1  UNL1        0.0741
     25 N          73.1307   79.7490   11.8816 N.3     1  UNL1       -0.2689
     26 C          73.6330   78.4925   11.2342 C.3     1  UNL1        0.0741
     27 C          73.4721   77.1739   11.9307 C.3     1  UNL1        0.0372
     28 C          73.2915   81.0676   11.1851 C.3     1  UNL1        0.0992
     29 C          72.7250   81.2636    9.8100 C.ar    1  UNL1       -0.0053
     30 C          72.2672   82.6240    9.3745 C.ar    1  UNL1       -0.0029
     31 C          71.7006   82.8200    7.9995 C.ar    1  UNL1        0.0006
     32 C          71.5920   81.6556    7.0601 C.ar    1  UNL1        0.0114
     33 C          72.0498   80.2953    7.4956 C.ar    1  UNL1        0.0574
     34 CL         71.9412   79.1309    6.5562 Cl      1  UNL1       -0.0823
     35 C          72.6163   80.0993    8.8706 C.ar    1  UNL1        0.0085
@<TRIPOS>BOND
     1     1     2    2
     2     2     3   am
     3     3     4    1
     4     4     8    1
     5     8     9   ar
     6     9    10   ar
     7    10    11   ar
     8    11    12    1
     9    11    13   ar
    10    13    14   ar
    11     4    15    1
    12    15    16   ar
    13    16    17   ar
    14    17    18   ar
    15    18    19    1
    16    18    20   ar
    17    20    21   ar
    18     4     5    1
    19     5     6    1
    20     6    22    1
    21    22    23    1
    22    23    24    1
    23    24    25    1
    24    25    28    1
    25    28    29    1
    26    29    30   ar
    27    30    31   ar
    28    31    32   ar
    29    32    33   ar
    30    33    34    1
    31    33    35   ar
    32    25    26    1
    33    26    27    1
    34     6     2   am
    35    27    22    1
    36    14     8   ar
    37    21    15   ar
    38    35    29   ar
    39     3     7    1
@<TRIPOS>MOLECULE
*****
 35 39 0 0 0
SMALL
GASTEIGER

@<TRIPOS>ATOM
      1 O          64.0598   87.4263   16.0903 O.2     1  UNL1       -0.2526
      2 C          63.7431   86.9882   14.6911 C.2     1  UNL1        0.3044
      3 N          63.2643   85.6273   14.2804 N.am    1  UNL1       -0.2833
      4 C          63.0749   85.6322   12.7924 C.3     1  UNL1        0.1144
      5 C          63.4366   86.9961   12.2835 C.3     1  UNL1        0.1212
      6 N          63.8495   87.8342   13.4570 N.am    1  UNL1       -0.2634
      7 H          63.1028   84.8648   14.8818 H       1  UNL1        0.1515
      8 C          62.7977   85.3391   11.3476 C.ar    1  UNL1       -0.0007
      9 C          61.5249   85.8192   10.7157 C.ar    1  UNL1       -0.0001
     10 C          61.2478   85.5261    9.2710 C.ar    1  UNL1        0.0294
     11 C          62.2435   84.7528    8.4582 C.ar    1  UNL1        0.1401
     12 F          61.9663   84.4596    7.0134 F       1  UNL1       -0.2042
     13 C          63.5163   84.2726    9.0901 C.ar    1  UNL1        0.0294
     14 C          63.7934   84.5657   10.5348 C.ar    1  UNL1       -0.0001
     15 C          62.6553   84.2070   12.9992 C.ar    1  UNL1       -0.0007
     16 C          62.7673   83.2214   11.8740 C.ar    1  UNL1       -0.0001
     17 C          62.3477   81.7962   12.0808 C.ar    1  UNL1        0.0294
     18 C          61.8160   81.3566   13.4128 C.ar    1  UNL1        0.1401
     19 F          61.3965   79.9314   13.6195 F       1  UNL1       -0.2042
     20 C          61.7040   82.3422   14.5379 C.ar    1  UNL1        0.0294
     21 C          62.1236   83.7674   14.3312 C.ar    1  UNL1       -0.0001
     22 C          64.2914   89.2667   13.4055 C.3     1  UNL1        0.0797
     23 C          63.7733   90.1730   12.3283 C.3     1  UNL1        0.0372
     24 C          64.2151   91.6055   12.2767 C.3     1  UNL1        0.0741
     25 N          65.1750   92.1318   13.3023 N.3     1  UNL1       -0.2689
     26 C          65.6931   91.2255   14.3794 C.3     1  UNL1        0.0741
     27 C          65.2512   89.7929   14.4310 C.3     1  UNL1        0.0372
     28 C          65.6168   93.5643   13.2506 C.3     1  UNL1        0.0992
     29 C          66.2226   94.1176   11.9949 C.ar    1  UNL1       -0.0053
     30 C          66.1107   95.5821   11.6905 C.ar    1  UNL1       -0.0029
     31 C          66.7165   96.1354   10.4347 C.ar    1  UNL1        0.0006
     32 C          67.4341   95.2242    9.4835 C.ar    1  UNL1        0.0114
     33 C          67.5460   93.7597    9.7879 C.ar    1  UNL1        0.0574
     34 CL         68.2635   92.8486    8.8367 Cl      1  UNL1       -0.0823
     35 C          66.9402   93.2064   11.0437 C.ar    1  UNL1        0.0085
@<TRIPOS>BOND
     1     1     2    2
     2     2     3   am
     3     3     4    1
     4     4     8    1
     5     8     9   ar
     6     9    10   ar
     7    10    11   ar
     8    11    12    1
     9    11    13   ar
    10    13    14   ar
    11     4    15    1
    12    15    16   ar
    13    16    17   ar
    14    17    18   ar
    15    18    19    1
    16    18    20   ar
    17    20    21   ar
    18     4     5    1
    19     5     6    1
    20     6    22    1
    21    22    23    1
    22    23    24    1
    23    24    25    1
    24    25    28    1
    25    28    29    1
    26    29    30   ar
    27    30    31   ar
    28    31    32   ar
    29    32    33   ar
    30    33    34    1
    31    33    35   ar
    32    25    26    1
    33    26    27    1
    34     6     2   am
    35    27    22    1
    36    14     8   ar
    37    21    15   ar
    38    35    29   ar
    39     3     7    1
@<TRIPOS>MOLECULE
*****
 35 39 0 0 0
SMALL
GASTEIGER

@<TRIPOS>ATOM
      1 O          56.9239   91.4134    5.4704 O.2     1  UNL1       -0.2526
      2 C          58.2715   91.5801    4.8332 C.2     1  UNL1        0.3044
      3 N          58.5840   92.4385    3.6434 N.am    1  UNL1       -0.2833
      4 C          60.0488   92.3066    3.3487 C.3     1  UNL1        0.1144
      5 C          60.6416   91.3668    4.3563 C.3     1  UNL1        0.1212
      6 N          59.5431   90.9178    5.2738 N.am    1  UNL1       -0.2634
      7 H          57.9406   92.9913    3.1437 H       1  UNL1        0.1515
      8 C          61.4511   92.3742    2.8202 C.ar    1  UNL1       -0.0007
      9 C          61.8251   93.4263    1.8186 C.ar    1  UNL1       -0.0001
     10 C          63.2273   93.4939    1.2902 C.ar    1  UNL1        0.0294
     11 C          64.2554   92.5094    1.7633 C.ar    1  UNL1        0.1401
     12 F          65.6576   92.5771    1.2348 F       1  UNL1       -0.2042
     13 C          63.8813   91.4574    2.7648 C.ar    1  UNL1        0.0294
     14 C          62.4792   91.3898    3.2933 C.ar    1  UNL1       -0.0001
     15 C          59.7492   93.2606    2.2306 C.ar    1  UNL1       -0.0007
     16 C          59.1813   92.7488    0.9400 C.ar    1  UNL1       -0.0001
     17 C          58.8816   93.7027   -0.1782 C.ar    1  UNL1        0.0294
     18 C          59.1499   95.1685   -0.0058 C.ar    1  UNL1        0.1401
     19 F          58.8502   96.1223   -1.1239 F       1  UNL1       -0.2042
     20 C          59.7178   95.6802    1.2848 C.ar    1  UNL1        0.0294
     21 C          60.0174   94.7263    2.4030 C.ar    1  UNL1       -0.0001
     22 C          59.6905   89.9725    6.4290 C.3     1  UNL1        0.0797
     23 C          60.3805   90.4221    7.6828 C.3     1  UNL1        0.0372
     24 C          60.5278   89.4768    8.8380 C.3     1  UNL1        0.0741
     25 N          59.9852   88.0818    8.7396 N.3     1  UNL1       -0.2689
     26 C          59.2953   87.6322    7.4859 C.3     1  UNL1        0.0741
     27 C          59.1479   88.5775    6.3307 C.3     1  UNL1        0.0372
     28 C          60.1326   87.1365    9.8949 C.3     1  UNL1        0.0992
     29 C          61.2788   86.1696    9.9314 C.ar    1  UNL1       -0.0053
     30 C          62.0489   85.8719    8.6791 C.ar    1  UNL1       -0.0029
     31 C          63.1951   84.9050    8.7156 C.ar    1  UNL1        0.0006
     32 C          63.5712   84.2359   10.0044 C.ar    1  UNL1        0.0114
     33 C          62.8011   84.5337   11.2567 C.ar    1  UNL1        0.0574
     34 CL         63.1771   83.8646   12.5454 Cl      1  UNL1       -0.0823
     35 C          61.6548   85.5006   11.2201 C.ar    1  UNL1        0.0085
@<TRIPOS>BOND
     1     1     2    2
     2     2     3   am
     3     3     4    1
     4     4     8    1
     5     8     9   ar
     6     9    10   ar
     7    10    11   ar
     8    11    12    1
     9    11    13   ar
    10    13    14   ar
    11     4    15    1
    12    15    16   ar
    13    16    17   ar
    14    17    18   ar
    15    18    19    1
    16    18    20   ar
    17    20    21   ar
    18     4     5    1
    19     5     6    1
    20     6    22    1
    21    22    23    1
    22    23    24    1
    23    24    25    1
    24    25    28    1
    25    28    29    1
    26    29    30   ar
    27    30    31   ar
    28    31    32   ar
    29    32    33   ar
    30    33    34    1
    31    33    35   ar
    32    25    26    1
    33    26    27    1
    34     6     2   am
    35    27    22    1
    36    14     8   ar
    37    21    15   ar
    38    35    29   ar
    39     3     7    1
@<TRIPOS>MOLECULE
*****
 35 39 0 0 0
SMALL
GASTEIGER

@<TRIPOS>ATOM
      1 O          62.8787   85.3755   17.6905 O.2     1  UNL1       -0.2526
      2 C          62.9978   85.1624   16.2105 C.2     1  UNL1        0.3044
      3 N          62.8022   83.8623   15.4884 N.am    1  UNL1       -0.2833
      4 C          63.0170   84.1084   14.0244 C.3     1  UNL1        0.1144
      5 C          63.3454   85.5606   13.8417 C.3     1  UNL1        0.1212
      6 N          63.3335   86.2120   15.1929 N.am    1  UNL1       -0.2634
      7 H          62.5730   82.9991   15.9026 H       1  UNL1        0.1515
      8 C          63.1698   84.0482   12.5334 C.ar    1  UNL1       -0.0007
      9 C          62.2602   84.8530   11.6531 C.ar    1  UNL1       -0.0001
     10 C          62.4130   84.7928   10.1622 C.ar    1  UNL1        0.0294
     11 C          63.4755   83.9278    9.5515 C.ar    1  UNL1        0.1401
     12 F          63.6283   83.8676    8.0604 F       1  UNL1       -0.2042
     13 C          64.3851   83.1230   10.4317 C.ar    1  UNL1        0.0294
     14 C          64.2322   83.1832   11.9227 C.ar    1  UNL1       -0.0001
     15 C          62.7206   82.6437   13.8953 C.ar    1  UNL1       -0.0007
     16 C          63.8447   81.6604   13.7561 C.ar    1  UNL1       -0.0001
     17 C          63.5484   80.1956   13.6270 C.ar    1  UNL1        0.0294
     18 C          62.1277   79.7141   13.6372 C.ar    1  UNL1        0.1401
     19 F          61.8314   78.2494   13.5082 F       1  UNL1       -0.2042
     20 C          61.0036   80.6974   13.7765 C.ar    1  UNL1        0.0294
     21 C          61.3000   82.1622   13.9055 C.ar    1  UNL1       -0.0001
     22 C          63.6090   87.6589   15.4765 C.3     1  UNL1        0.0797
     23 C          63.0541   88.2994   16.7142 C.3     1  UNL1        0.0372
     24 C          63.3295   89.7464   16.9978 C.3     1  UNL1        0.0741
     25 N          64.1599   90.5529   16.0438 N.3     1  UNL1       -0.2689
     26 C          64.7148   89.9123   14.8061 C.3     1  UNL1        0.0741
     27 C          64.4393   88.4654   14.5225 C.3     1  UNL1        0.0372
     28 C          64.4354   91.9998   16.3275 C.3     1  UNL1        0.0992
     29 C          65.6244   92.6725   15.7080 C.ar    1  UNL1       -0.0053
     30 C          66.8976   92.8128   16.4883 C.ar    1  UNL1       -0.0029
     31 C          68.0866   93.4855   15.8688 C.ar    1  UNL1        0.0006
     32 C          68.0023   94.0178   14.4690 C.ar    1  UNL1        0.0114
     33 C          66.7290   93.8775   13.6887 C.ar    1  UNL1        0.0574
     34 CL         66.6447   94.4098   12.2889 Cl      1  UNL1       -0.0823
     35 C          65.5400   93.2048   14.3082 C.ar    1  UNL1        0.0085
@<TRIPOS>BOND
     1     1     2    2
     2     2     3   am
     3     3     4    1
     4     4     8    1
     5     8     9   ar
     6     9    10   ar
     7    10    11   ar
     8    11    12    1
     9    11    13   ar
    10    13    14   ar
    11     4    15    1
    12    15    16   ar
    13    16    17   ar
    14    17    18   ar
    15    18    19    1
    16    18    20   ar
    17    20    21   ar
    18     4     5    1
    19     5     6    1
    20     6    22    1
    21    22    23    1
    22    23    24    1
    23    24    25    1
    24    25    28    1
    25    28    29    1
    26    29    30   ar
    27    30    31   ar
    28    31    32   ar
    29    32    33   ar
    30    33    34    1
    31    33    35   ar
    32    25    26    1
    33    26    27    1
    34     6     2   am
    35    27    22    1
    36    14     8   ar
    37    21    15   ar
    38    35    29   ar
    39     3     7    1
@<TRIPOS>MOLECULE
*****
 35 39 0 0 0
SMALL
GASTEIGER

@<TRIPOS>ATOM
      1 O          64.2341   92.3551   10.1199 O.2     1  UNL1       -0.2526
      2 C          64.0457   91.5016   11.3389 C.2     1  UNL1        0.3044
      3 N          64.8390   91.5909   12.6089 N.am    1  UNL1       -0.2833
      4 C          64.3146   90.5534   13.5568 C.3     1  UNL1        0.1144
      5 C          63.1973   89.8229   12.8727 C.3     1  UNL1        0.1212
      6 N          63.0311   90.4090   11.5020 N.am    1  UNL1       -0.2634
      7 H          65.5746   92.2200   12.7886 H       1  UNL1        0.1515
      8 C          64.0105   89.6282   14.6977 C.ar    1  UNL1       -0.0007
      9 C          64.3882   88.1792   14.6094 C.ar    1  UNL1       -0.0001
     10 C          64.0841   87.2541   15.7503 C.ar    1  UNL1        0.0294
     11 C          63.4024   87.7779   16.9794 C.ar    1  UNL1        0.1401
     12 F          63.0983   86.8527   18.1203 F       1  UNL1       -0.2042
     13 C          63.0247   89.2269   17.0678 C.ar    1  UNL1        0.0294
     14 C          63.3288   90.1520   15.9269 C.ar    1  UNL1       -0.0001
     15 C          65.3683   91.0905   14.4794 C.ar    1  UNL1       -0.0007
     16 C          66.8133   90.7718   14.2339 C.ar    1  UNL1       -0.0001
     17 C          67.8671   91.3088   15.1565 C.ar    1  UNL1        0.0294
     18 C          67.4758   92.1646   16.3247 C.ar    1  UNL1        0.1401
     19 F          68.5296   92.7016   17.2472 F       1  UNL1       -0.2042
     20 C          66.0308   92.4833   16.5702 C.ar    1  UNL1        0.0294
     21 C          64.9770   91.9463   15.6476 C.ar    1  UNL1       -0.0001
     22 C          62.0267   89.9780   10.4747 C.3     1  UNL1        0.0797
     23 C          60.7698   90.7721   10.2753 C.3     1  UNL1        0.0372
     24 C          59.7654   90.3411    9.2480 C.3     1  UNL1        0.0741
     25 N          60.0178   89.1160    8.4200 N.3     1  UNL1       -0.2689
     26 C          61.2747   88.3220    8.6194 C.3     1  UNL1        0.0741
     27 C          62.2791   88.7530    9.6467 C.3     1  UNL1        0.0372
     28 C          59.0134   88.6851    7.3927 C.3     1  UNL1        0.0992
     29 C          58.4556   89.6849    6.4235 C.ar    1  UNL1       -0.0053
     30 C          56.9727   89.7887    6.2234 C.ar    1  UNL1       -0.0029
     31 C          56.4150   90.7884    5.2541 C.ar    1  UNL1        0.0006
     32 C          57.3402   91.6843    4.4850 C.ar    1  UNL1        0.0114
     33 C          58.8231   91.5805    4.6852 C.ar    1  UNL1        0.0574
     34 CL         59.7483   92.4763    3.9161 Cl      1  UNL1       -0.0823
     35 C          59.3808   90.5807    5.6544 C.ar    1  UNL1        0.0085
@<TRIPOS>BOND
     1     1     2    2
     2     2     3   am
     3     3     4    1
     4     4     8    1
     5     8     9   ar
     6     9    10   ar
     7    10    11   ar
     8    11    12    1
     9    11    13   ar
    10    13    14   ar
    11     4    15    1
    12    15    16   ar
    13    16    17   ar
    14    17    18   ar
    15    18    19    1
    16    18    20   ar
    17    20    21   ar
    18     4     5    1
    19     5     6    1
    20     6    22    1
    21    22    23    1
    22    23    24    1
    23    24    25    1
    24    25    28    1
    25    28    29    1
    26    29    30   ar
    27    30    31   ar
    28    31    32   ar
    29    32    33   ar
    30    33    34    1
    31    33    35   ar
    32    25    26    1
    33    26    27    1
    34     6     2   am
    35    27    22    1
    36    14     8   ar
    37    21    15   ar
    38    35    29   ar
    39     3     7    1
