@<TRIPOS>MOLECULE
*****
 39 43 0 0 0
SMALL
GASTEIGER

@<TRIPOS>ATOM
      1 N          63.9284   89.3919   14.6009 N.3     1  UNL1       -0.2688
      2 C          64.3447   88.2150   15.4323 C.3     1  UNL1        0.0741
      3 C          64.2998   86.8327   14.8513 C.3     1  UNL1        0.0369
      4 C          63.8385   86.6276   13.4388 C.3     1  UNL1        0.0743
      5 C          63.4221   87.8046   12.6074 C.3     1  UNL1        0.0369
      6 C          63.4671   89.1868   13.1884 C.3     1  UNL1        0.0741
      7 N          63.7936   85.2454   12.8578 N.am    1  UNL1       -0.3056
      8 C          62.7089   84.2942   13.2683 C.2     1  UNL1        0.2254
      9 O          61.6692   84.7251   14.2599 O.2     1  UNL1       -0.2748
     10 H          64.4760   84.9626   12.2070 H       1  UNL1        0.1494
     11 C          62.6640   82.9120   12.6873 C.3     1  UNL1        0.0902
     12 C          62.5976   82.5823   14.1491 C.3     1  UNL1        0.0298
     13 C          62.5148   81.1517   14.5923 C.3     1  UNL1        0.0694
     14 N          62.4983   80.0507   13.5736 N.3     1  UNL1       -0.2974
     15 C          62.5646   80.3804   12.1118 C.3     1  UNL1        0.0694
     16 C          62.6475   81.8110   11.6686 C.3     1  UNL1        0.0298
     17 H          61.6343   79.5283   13.7187 H       1  UNL1        0.1232
     18 C          62.7459   83.7217   11.4273 C.ar    1  UNL1       -0.0145
     19 C          61.8037   84.8684   11.2100 C.ar    1  UNL1       -0.0038
     20 C          61.8857   85.6782    9.9500 C.ar    1  UNL1       -0.0003
     21 C          62.9099   85.3411    8.9072 C.ar    1  UNL1       -0.0000
     22 C          63.8521   84.1944    9.1244 C.ar    1  UNL1       -0.0003
     23 C          63.7701   83.3847   10.3845 C.ar    1  UNL1       -0.0038
     24 C          63.9733   90.7741   15.1819 C.3     1  UNL1        0.0992
     25 C          66.8039   92.7377   13.2117 C.ar    1  UNL1        0.1452
     26 C          67.4862   93.4567   14.3376 C.ar    1  UNL1        0.0375
     27 C          66.9975   93.2814   15.7449 C.ar    1  UNL1        0.0029
     28 C          65.8265   92.3872   16.0263 C.ar    1  UNL1       -0.0027
     29 C          65.1443   91.6683   14.9005 C.ar    1  UNL1       -0.0031
     30 C          65.6330   91.8435   13.4931 C.ar    1  UNL1        0.0346
     31 O          67.2926   92.9129   11.8045 O.3     1  UNL1       -0.4504
     32 C          67.7385   94.5351    9.8246 C.ar    1  UNL1        0.1730
     33 C          67.3897   95.7767    9.0587 C.ar    1  UNL1        0.0401
     34 C          66.2460   96.6378    9.5067 C.ar    1  UNL1        0.0033
     35 C          65.4513   96.2573   10.7206 C.ar    1  UNL1        0.0033
     36 C          65.8002   95.0157   11.4865 C.ar    1  UNL1        0.0406
     37 C          66.9438   94.1546   11.0385 C.ar    1  UNL1        0.1789
     38 C          68.6306   92.2622    8.9369 C.3     1  UNL1        0.2526
     39 O          68.8821   93.6740    9.3766 O.3     1  UNL1       -0.4684
@<TRIPOS>BOND
     1    38    39    1
     2    39    32    1
     3    32    33   ar
     4    33    34   ar
     5    34    35   ar
     6    35    36   ar
     7    36    37   ar
     8    37    31    1
     9    31    25    1
    10    25    26   ar
    11    26    27   ar
    12    27    28   ar
    13    28    29   ar
    14    29    24    1
    15    24     1    1
    16     1     2    1
    17     2     3    1
    18     3     4    1
    19     4     7    1
    20     7     8   am
    21     8     9    2
    22     8    11    1
    23    11    18    1
    24    18    19   ar
    25    19    20   ar
    26    20    21   ar
    27    21    22   ar
    28    22    23   ar
    29    11    12    1
    30    12    13    1
    31    13    14    1
    32    14    15    1
    33    15    16    1
    34     4     5    1
    35     5     6    1
    36    29    30   ar
    37    37    32   ar
    38    30    25   ar
    39     6     1    1
    40    16    11    1
    41    23    18   ar
    42     7    10    1
    43    14    17    1
@<TRIPOS>MOLECULE
*****
 39 43 0 0 0
SMALL
GASTEIGER

@<TRIPOS>ATOM
      1 N          64.2606   89.8899   14.5554 N.3     1  UNL1       -0.2688
      2 C          64.4056   88.4218   14.2839 C.3     1  UNL1        0.0741
      3 C          63.5097   87.7518   13.2846 C.3     1  UNL1        0.0369
      4 C          62.4688   88.5499   12.5569 C.3     1  UNL1        0.0743
      5 C          62.3238   90.0180   12.8284 C.3     1  UNL1        0.0369
      6 C          63.2197   90.6880   13.8277 C.3     1  UNL1        0.0741
      7 N          61.5729   87.8800   11.5576 N.am    1  UNL1       -0.3056
      8 C          61.8902   87.9600   10.0938 C.2     1  UNL1        0.2254
      9 O          63.1033   88.7099    9.6292 O.2     1  UNL1       -0.2748
     10 H          60.7767   87.3878   11.8626 H       1  UNL1        0.1494
     11 C          60.9943   87.2900    9.0944 C.3     1  UNL1        0.0902
     12 C          60.4734   88.6941    9.0110 C.3     1  UNL1        0.0298
     13 C          59.3456   89.0215    8.0778 C.3     1  UNL1        0.0694
     14 N          58.7387   87.9447    7.2280 N.3     1  UNL1       -0.2974
     15 C          59.2596   86.5405    7.3114 C.3     1  UNL1        0.0694
     16 C          60.3874   86.2132    8.2446 C.3     1  UNL1        0.0298
     17 H          58.8443   88.2407    6.2577 H       1  UNL1        0.1232
     18 C          61.8263   86.1185    9.5249 C.ar    1  UNL1       -0.0145
     19 C          61.6626   85.5481   10.9025 C.ar    1  UNL1       -0.0038
     20 C          62.4947   84.3766   11.3330 C.ar    1  UNL1       -0.0003
     21 C          63.4904   83.7755   10.3858 C.ar    1  UNL1       -0.0000
     22 C          63.6541   84.3459    9.0082 C.ar    1  UNL1       -0.0003
     23 C          62.8221   85.5174    8.5778 C.ar    1  UNL1       -0.0038
     24 C          65.1565   90.5598   15.5546 C.3     1  UNL1        0.0992
     25 C          66.4100   93.6976   13.4729 C.ar    1  UNL1        0.1452
     26 C          67.4522   94.2532   14.3977 C.ar    1  UNL1        0.0375
     27 C          67.7291   93.5777   15.7080 C.ar    1  UNL1        0.0029
     28 C          66.9639   92.3466   16.0936 C.ar    1  UNL1       -0.0027
     29 C          65.9217   91.7909   15.1690 C.ar    1  UNL1       -0.0031
     30 C          65.6447   92.4664   13.8586 C.ar    1  UNL1        0.0346
     31 O          66.1331   94.3730   12.1626 O.3     1  UNL1       -0.4504
     32 C          67.1134   94.9387    9.8240 C.ar    1  UNL1        0.1730
     33 C          67.8585   94.5190    8.5917 C.ar    1  UNL1        0.0401
     34 C          68.3683   93.1140    8.4656 C.ar    1  UNL1        0.0033
     35 C          68.1331   92.1287    9.5717 C.ar    1  UNL1        0.0033
     36 C          67.3881   92.5483   10.8041 C.ar    1  UNL1        0.0406
     37 C          66.8782   93.9534   10.9302 C.ar    1  UNL1        0.1789
     38 C          65.1608   96.6459    9.6720 C.3     1  UNL1        0.2526
     39 O          66.6035   96.3438    9.9501 O.3     1  UNL1       -0.4684
@<TRIPOS>BOND
     1    38    39    1
     2    39    32    1
     3    32    33   ar
     4    33    34   ar
     5    34    35   ar
     6    35    36   ar
     7    36    37   ar
     8    37    31    1
     9    31    25    1
    10    25    26   ar
    11    26    27   ar
    12    27    28   ar
    13    28    29   ar
    14    29    24    1
    15    24     1    1
    16     1     2    1
    17     2     3    1
    18     3     4    1
    19     4     7    1
    20     7     8   am
    21     8     9    2
    22     8    11    1
    23    11    18    1
    24    18    19   ar
    25    19    20   ar
    26    20    21   ar
    27    21    22   ar
    28    22    23   ar
    29    11    12    1
    30    12    13    1
    31    13    14    1
    32    14    15    1
    33    15    16    1
    34     4     5    1
    35     5     6    1
    36    29    30   ar
    37    37    32   ar
    38    30    25   ar
    39     6     1    1
    40    16    11    1
    41    23    18   ar
    42     7    10    1
    43    14    17    1
@<TRIPOS>MOLECULE
*****
 39 43 0 0 0
SMALL
GASTEIGER

@<TRIPOS>ATOM
      1 N          61.5704   89.3147   10.3812 N.3     1  UNL1       -0.2688
      2 C          61.7578   89.2953   11.8693 C.3     1  UNL1        0.0741
      3 C          62.7271   90.2403   12.5155 C.3     1  UNL1        0.0369
      4 C          63.5089   91.2046   11.6736 C.3     1  UNL1        0.0743
      5 C          63.3215   91.2239   10.1854 C.3     1  UNL1        0.0369
      6 C          62.3522   90.2790    9.5393 C.3     1  UNL1        0.0741
      7 N          64.4782   92.1495   12.3198 N.am    1  UNL1       -0.3056
      8 C          65.4194   91.6519   13.3765 C.2     1  UNL1        0.2254
      9 O          65.3913   90.2095   13.7869 O.2     1  UNL1       -0.2748
     10 H          64.4966   93.0962   12.0504 H       1  UNL1        0.1494
     11 C          66.3887   92.5969   14.0227 C.3     1  UNL1        0.0902
     12 C          65.7818   91.9712   15.2434 C.3     1  UNL1        0.0298
     13 C          66.2380   92.3937   16.6084 C.3     1  UNL1        0.0694
     14 N          67.3012   93.4420   16.7527 N.3     1  UNL1       -0.2974
     15 C          67.9082   94.0677   15.5320 C.3     1  UNL1        0.0694
     16 C          67.4519   93.6452   14.1670 C.3     1  UNL1        0.0298
     17 H          68.0659   93.0158   17.2762 H       1  UNL1        0.1232
     18 C          66.6590   92.8944   12.5775 C.ar    1  UNL1       -0.0145
     19 C          67.4028   91.9021   11.7339 C.ar    1  UNL1       -0.0038
     20 C          67.6731   92.1996   10.2887 C.ar    1  UNL1       -0.0003
     21 C          67.1996   93.4895    9.6873 C.ar    1  UNL1       -0.0000
     22 C          66.4557   94.4819   10.5309 C.ar    1  UNL1       -0.0003
     23 C          66.1854   94.1844   11.9761 C.ar    1  UNL1       -0.0038
     24 C          60.6011   88.3697    9.7350 C.3     1  UNL1        0.0992
     25 C          62.6933   85.0565    9.1064 C.ar    1  UNL1        0.1452
     26 C          62.0909   84.5812    7.8174 C.ar    1  UNL1        0.0375
     27 C          60.9920   85.3687    7.1677 C.ar    1  UNL1        0.0029
     28 C          60.4954   86.6316    7.8069 C.ar    1  UNL1       -0.0027
     29 C          61.0977   87.1069    9.0958 C.ar    1  UNL1       -0.0031
     30 C          62.1967   86.3193    9.7456 C.ar    1  UNL1        0.0346
     31 O          63.7922   84.2689    9.7560 O.3     1  UNL1       -0.4504
     32 C          63.2756   83.6578   12.2278 C.ar    1  UNL1        0.1730
     33 C          62.9468   82.6309   13.2706 C.ar    1  UNL1        0.0401
     34 C          62.8061   81.1883   12.8845 C.ar    1  UNL1        0.0033
     35 C          62.9940   80.7726   11.4556 C.ar    1  UNL1        0.0033
     36 C          63.3227   81.7994   10.4128 C.ar    1  UNL1        0.0406
     37 C          63.4635   83.2420   10.7989 C.ar    1  UNL1        0.1789
     38 C          63.8885   85.4658   13.9899 C.3     1  UNL1        0.2526
     39 O          63.4163   85.1004   12.6139 O.3     1  UNL1       -0.4684
@<TRIPOS>BOND
     1    38    39    1
     2    39    32    1
     3    32    33   ar
     4    33    34   ar
     5    34    35   ar
     6    35    36   ar
     7    36    37   ar
     8    37    31    1
     9    31    25    1
    10    25    26   ar
    11    26    27   ar
    12    27    28   ar
    13    28    29   ar
    14    29    24    1
    15    24     1    1
    16     1     2    1
    17     2     3    1
    18     3     4    1
    19     4     7    1
    20     7     8   am
    21     8     9    2
    22     8    11    1
    23    11    18    1
    24    18    19   ar
    25    19    20   ar
    26    20    21   ar
    27    21    22   ar
    28    22    23   ar
    29    11    12    1
    30    12    13    1
    31    13    14    1
    32    14    15    1
    33    15    16    1
    34     4     5    1
    35     5     6    1
    36    29    30   ar
    37    37    32   ar
    38    30    25   ar
    39     6     1    1
    40    16    11    1
    41    23    18   ar
    42     7    10    1
    43    14    17    1
@<TRIPOS>MOLECULE
*****
 39 43 0 0 0
SMALL
GASTEIGER

@<TRIPOS>ATOM
      1 N          61.4898   89.3235   10.3078 N.3     1  UNL1       -0.2688
      2 C          61.6610   89.2887   11.7975 C.3     1  UNL1        0.0741
      3 C          62.6439   90.2073   12.4612 C.3     1  UNL1        0.0369
      4 C          63.4554   91.1606   11.6350 C.3     1  UNL1        0.0743
      5 C          63.2842   91.1953   10.1451 C.3     1  UNL1        0.0369
      6 C          62.3014   90.2768    9.4816 C.3     1  UNL1        0.0741
      7 N          64.4383   92.0791   12.2985 N.am    1  UNL1       -0.3056
      8 C          65.3591   91.5524   13.3590 C.2     1  UNL1        0.2254
      9 O          65.2971   90.1072   13.7559 O.2     1  UNL1       -0.2748
     10 H          64.4789   93.0276   12.0380 H       1  UNL1        0.1494
     11 C          66.3420   92.4709   14.0226 C.3     1  UNL1        0.0902
     12 C          65.6285   91.9372   15.2293 C.3     1  UNL1        0.0298
     13 C          66.0272   92.3965   16.6004 C.3     1  UNL1        0.0694
     14 N          67.1393   93.3896   16.7649 N.3     1  UNL1       -0.2974
     15 C          67.8527   93.9234   15.5582 C.3     1  UNL1        0.0694
     16 C          67.4541   93.4640   14.1871 C.3     1  UNL1        0.0298
     17 H          67.8455   92.9463   17.3523 H       1  UNL1        0.1232
     18 C          66.7140   92.6857   12.5854 C.ar    1  UNL1       -0.0145
     19 C          67.6367   91.7235   11.8977 C.ar    1  UNL1       -0.0038
     20 C          68.0088   91.9383   10.4605 C.ar    1  UNL1       -0.0003
     21 C          67.4582   93.1152    9.7111 C.ar    1  UNL1       -0.0000
     22 C          66.5356   94.0774   10.3988 C.ar    1  UNL1       -0.0003
     23 C          66.1635   93.8626   11.8360 C.ar    1  UNL1       -0.0038
     24 C          60.5070   88.4050    9.6442 C.3     1  UNL1        0.0992
     25 C          62.5234   85.0377    9.0563 C.ar    1  UNL1        0.1452
     26 C          61.9263   84.5721    7.7614 C.ar    1  UNL1        0.0375
     27 C          60.8560   85.3841    7.0942 C.ar    1  UNL1        0.0029
     28 C          60.3829   86.6617    7.7218 C.ar    1  UNL1       -0.0027
     29 C          60.9801   87.1273    9.0166 C.ar    1  UNL1       -0.0031
     30 C          62.0503   86.3153    9.6839 C.ar    1  UNL1        0.0346
     31 O          63.5937   84.2257    9.7236 O.3     1  UNL1       -0.4504
     32 C          63.2862   82.1405   11.2426 C.ar    1  UNL1        0.1730
     33 C          63.0409   81.5450   12.5973 C.ar    1  UNL1        0.0401
     34 C          62.8579   82.4391   13.7876 C.ar    1  UNL1        0.0033
     35 C          62.9201   83.9288   13.6233 C.ar    1  UNL1        0.0033
     36 C          63.1653   84.5243   12.2687 C.ar    1  UNL1        0.0406
     37 C          63.3484   83.6301   11.0783 C.ar    1  UNL1        0.1789
     38 C          62.9089   79.8550   10.0661 C.3     1  UNL1        0.2526
     39 O          63.4692   81.2463   10.0522 O.3     1  UNL1       -0.4684
@<TRIPOS>BOND
     1    38    39    1
     2    39    32    1
     3    32    33   ar
     4    33    34   ar
     5    34    35   ar
     6    35    36   ar
     7    36    37   ar
     8    37    31    1
     9    31    25    1
    10    25    26   ar
    11    26    27   ar
    12    27    28   ar
    13    28    29   ar
    14    29    24    1
    15    24     1    1
    16     1     2    1
    17     2     3    1
    18     3     4    1
    19     4     7    1
    20     7     8   am
    21     8     9    2
    22     8    11    1
    23    11    18    1
    24    18    19   ar
    25    19    20   ar
    26    20    21   ar
    27    21    22   ar
    28    22    23   ar
    29    11    12    1
    30    12    13    1
    31    13    14    1
    32    14    15    1
    33    15    16    1
    34     4     5    1
    35     5     6    1
    36    29    30   ar
    37    37    32   ar
    38    30    25   ar
    39     6     1    1
    40    16    11    1
    41    23    18   ar
    42     7    10    1
    43    14    17    1
@<TRIPOS>MOLECULE
*****
 39 43 0 0 0
SMALL
GASTEIGER

@<TRIPOS>ATOM
      1 N          59.2139   90.1553    5.9016 N.3     1  UNL1       -0.2688
      2 C          60.6759   90.2745    5.5881 C.3     1  UNL1        0.0741
      3 C          61.1512   91.3068    4.6090 C.3     1  UNL1        0.0369
      4 C          60.1645   92.2198    3.9435 C.3     1  UNL1        0.0743
      5 C          58.7025   92.1005    4.2572 C.3     1  UNL1        0.0369
      6 C          58.2272   91.0683    5.2362 C.3     1  UNL1        0.0741
      7 N          60.6398   93.2520    2.9645 N.am    1  UNL1       -0.3056
      8 C          61.8340   92.9729    2.1009 C.2     1  UNL1        0.2254
      9 O          62.5530   91.6615    2.2164 O.2     1  UNL1       -0.2748
     10 H          60.1679   94.1127    2.8887 H       1  UNL1        0.1494
     11 C          62.3093   94.0051    1.1218 C.3     1  UNL1        0.0902
     12 C          63.4869   93.9648    2.0499 C.3     1  UNL1        0.0298
     13 C          64.6735   94.8462    1.7948 C.3     1  UNL1        0.0694
     14 N          64.6825   95.7679    0.6114 N.3     1  UNL1       -0.2974
     15 C          63.5049   95.8083   -0.3168 C.3     1  UNL1        0.0694
     16 C          62.3183   94.9269   -0.0616 C.3     1  UNL1        0.0298
     17 H          65.4936   95.5148    0.0471 H       1  UNL1        0.1232
     18 C          60.9666   93.6870    0.5336 C.ar    1  UNL1       -0.0145
     19 C          59.8970   94.7378    0.4943 C.ar    1  UNL1       -0.0038
     20 C          58.5542   94.4197   -0.0939 C.ar    1  UNL1       -0.0003
     21 C          58.2812   93.0506   -0.6427 C.ar    1  UNL1       -0.0000
     22 C          59.3508   91.9998   -0.6033 C.ar    1  UNL1       -0.0003
     23 C          60.6935   92.3180   -0.0152 C.ar    1  UNL1       -0.0038
     24 C          58.7387   89.1230    6.8807 C.3     1  UNL1        0.0992
     25 C          60.8980   88.8922   10.2025 C.ar    1  UNL1        0.1452
     26 C          61.5422   87.5487   10.0290 C.ar    1  UNL1        0.0375
     27 C          61.2519   86.7301    8.8061 C.ar    1  UNL1        0.0029
     28 C          60.3174   87.2548    7.7567 C.ar    1  UNL1       -0.0027
     29 C          59.6732   88.5983    7.9301 C.ar    1  UNL1       -0.0031
     30 C          59.9635   89.4170    9.1531 C.ar    1  UNL1        0.0346
     31 O          61.1883   89.7109   11.4254 O.3     1  UNL1       -0.4504
     32 C          63.2227   90.5203   12.8240 C.ar    1  UNL1        0.1730
     33 C          64.5067   91.2892   12.9243 C.ar    1  UNL1        0.0401
     34 C          65.0403   92.0175   11.7265 C.ar    1  UNL1        0.0033
     35 C          64.2900   91.9770   10.4284 C.ar    1  UNL1        0.0033
     36 C          63.0060   91.2081   10.3280 C.ar    1  UNL1        0.0406
     37 C          62.4723   90.4798   11.5258 C.ar    1  UNL1        0.1789
     38 C          63.4479   89.8186   15.3153 C.3     1  UNL1        0.2526
     39 O          62.6890   89.7920   14.0218 O.3     1  UNL1       -0.4684
@<TRIPOS>BOND
     1    38    39    1
     2    39    32    1
     3    32    33   ar
     4    33    34   ar
     5    34    35   ar
     6    35    36   ar
     7    36    37   ar
     8    37    31    1
     9    31    25    1
    10    25    26   ar
    11    26    27   ar
    12    27    28   ar
    13    28    29   ar
    14    29    24    1
    15    24     1    1
    16     1     2    1
    17     2     3    1
    18     3     4    1
    19     4     7    1
    20     7     8   am
    21     8     9    2
    22     8    11    1
    23    11    18    1
    24    18    19   ar
    25    19    20   ar
    26    20    21   ar
    27    21    22   ar
    28    22    23   ar
    29    11    12    1
    30    12    13    1
    31    13    14    1
    32    14    15    1
    33    15    16    1
    34     4     5    1
    35     5     6    1
    36    29    30   ar
    37    37    32   ar
    38    30    25   ar
    39     6     1    1
    40    16    11    1
    41    23    18   ar
    42     7    10    1
    43    14    17    1
@<TRIPOS>MOLECULE
*****
 39 43 0 0 0
SMALL
GASTEIGER

@<TRIPOS>ATOM
      1 N          61.9773   88.4031   11.0810 N.3     1  UNL1       -0.2688
      2 C          62.9328   88.5412   12.2290 C.3     1  UNL1        0.0741
      3 C          63.5775   89.8655   12.5130 C.3     1  UNL1        0.0369
      4 C          63.2667   91.0516   11.6490 C.3     1  UNL1        0.0743
      5 C          62.3112   90.9134   10.5010 C.3     1  UNL1        0.0369
      6 C          61.6665   89.5892   10.2170 C.3     1  UNL1        0.0741
      7 N          63.9114   92.3759   11.9330 N.am    1  UNL1       -0.3056
      8 C          65.1987   92.7437   11.2565 C.2     1  UNL1        0.2254
      9 O          65.8412   91.7873   10.2961 O.2     1  UNL1       -0.2748
     10 H          63.4897   93.0036   12.5634 H       1  UNL1        0.1494
     11 C          65.8434   94.0680   11.5405 C.3     1  UNL1        0.0902
     12 C          65.0560   94.4196   10.3132 C.3     1  UNL1        0.0298
     13 C          65.1090   95.8135    9.7618 C.3     1  UNL1        0.0694
     14 N          65.9495   96.8560   10.4378 N.3     1  UNL1       -0.2974
     15 C          66.7369   96.5045   11.6651 C.3     1  UNL1        0.0694
     16 C          66.6839   95.1105   12.2165 C.3     1  UNL1        0.0298
     17 H          65.3219   97.6166   10.6985 H       1  UNL1        0.1232
     18 C          66.4069   93.2566   12.6693 C.ar    1  UNL1       -0.0145
     19 C          67.6260   92.4108   12.4493 C.ar    1  UNL1       -0.0038
     20 C          68.1896   91.5994   13.5781 C.ar    1  UNL1       -0.0003
     21 C          67.5339   91.6337   14.9267 C.ar    1  UNL1       -0.0000
     22 C          66.3148   92.4794   15.1467 C.ar    1  UNL1       -0.0003
     23 C          65.7513   93.2909   14.0179 C.ar    1  UNL1       -0.0038
     24 C          61.3326   87.0788   10.7970 C.3     1  UNL1        0.0992
     25 C          63.5131   83.8637    9.9855 C.ar    1  UNL1        0.1452
     26 C          63.5749   83.9336    8.4883 C.ar    1  UNL1        0.0375
     27 C          62.8894   85.0520    7.7608 C.ar    1  UNL1        0.0029
     28 C          62.1420   86.1004    8.5304 C.ar    1  UNL1       -0.0027
     29 C          62.0801   86.0304   10.0275 C.ar    1  UNL1       -0.0031
     30 C          62.7656   84.9120   10.7550 C.ar    1  UNL1        0.0346
     31 O          64.1986   82.7453   10.7130 O.3     1  UNL1       -0.4504
     32 C          63.8493   82.8151   13.2865 C.ar    1  UNL1        0.1730
     33 C          63.2366   82.2427   14.5303 C.ar    1  UNL1        0.0401
     34 C          62.3607   81.0281   14.4443 C.ar    1  UNL1        0.0033
     35 C          62.0973   80.3859   13.1146 C.ar    1  UNL1        0.0033
     36 C          62.7100   80.9583   11.8709 C.ar    1  UNL1        0.0406
     37 C          63.5860   82.1729   11.9568 C.ar    1  UNL1        0.1789
     38 C          64.5528   85.0003   14.5031 C.3     1  UNL1        0.2526
     39 O          64.7252   84.0297   13.3725 O.3     1  UNL1       -0.4684
@<TRIPOS>BOND
     1    38    39    1
     2    39    32    1
     3    32    33   ar
     4    33    34   ar
     5    34    35   ar
     6    35    36   ar
     7    36    37   ar
     8    37    31    1
     9    31    25    1
    10    25    26   ar
    11    26    27   ar
    12    27    28   ar
    13    28    29   ar
    14    29    24    1
    15    24     1    1
    16     1     2    1
    17     2     3    1
    18     3     4    1
    19     4     7    1
    20     7     8   am
    21     8     9    2
    22     8    11    1
    23    11    18    1
    24    18    19   ar
    25    19    20   ar
    26    20    21   ar
    27    21    22   ar
    28    22    23   ar
    29    11    12    1
    30    12    13    1
    31    13    14    1
    32    14    15    1
    33    15    16    1
    34     4     5    1
    35     5     6    1
    36    29    30   ar
    37    37    32   ar
    38    30    25   ar
    39     6     1    1
    40    16    11    1
    41    23    18   ar
    42     7    10    1
    43    14    17    1
@<TRIPOS>MOLECULE
*****
 39 43 0 0 0
SMALL
GASTEIGER

@<TRIPOS>ATOM
      1 N          59.3191   90.0949    5.9447 N.3     1  UNL1       -0.2688
      2 C          58.1347   90.8966    5.4924 C.3     1  UNL1        0.0741
      3 C          58.3163   92.0111    4.5050 C.3     1  UNL1        0.0369
      4 C          59.6822   92.3239    3.9699 C.3     1  UNL1        0.0743
      5 C          60.8666   91.5222    4.4223 C.3     1  UNL1        0.0369
      6 C          60.6850   90.4077    5.4097 C.3     1  UNL1        0.0741
      7 N          59.8638   93.4384    2.9826 N.am    1  UNL1       -0.3056
      8 C          60.0695   93.1271    1.5297 C.2     1  UNL1        0.2254
      9 O          60.0935   91.7013    1.0643 O.2     1  UNL1       -0.2748
     10 H          59.8481   94.3741    3.2881 H       1  UNL1        0.1494
     11 C          60.2511   94.2416    0.5423 C.3     1  UNL1        0.0902
     12 C          58.7952   93.9455    0.3359 C.3     1  UNL1        0.0298
     13 C          58.0047   94.7322   -0.6671 C.3     1  UNL1        0.0694
     14 N          58.6701   95.8151   -1.4637 N.3     1  UNL1       -0.2974
     15 C          60.1259   96.1112   -1.2574 C.3     1  UNL1        0.0694
     16 C          60.9165   95.3245   -0.2544 C.3     1  UNL1        0.0298
     17 H          58.1633   96.6784   -1.2679 H       1  UNL1        0.1232
     18 C          61.6440   94.1506    1.0916 C.ar    1  UNL1       -0.0145
     19 C          62.3277   92.8189    1.1856 C.ar    1  UNL1       -0.0038
     20 C          63.7205   92.7280    1.7349 C.ar    1  UNL1       -0.0003
     21 C          64.4297   93.9689    2.1902 C.ar    1  UNL1       -0.0000
     22 C          63.7460   95.3006    2.0961 C.ar    1  UNL1       -0.0003
     23 C          62.3531   95.3916    1.5468 C.ar    1  UNL1       -0.0038
     24 C          59.1374   88.9804    6.9321 C.3     1  UNL1        0.0992
     25 C          60.8438   87.6778   10.2700 C.ar    1  UNL1        0.1452
     26 C          61.5635   88.9141   10.7216 C.ar    1  UNL1        0.0375
     27 C          61.4744   90.1724    9.9100 C.ar    1  UNL1        0.0029
     28 C          60.6657   90.1945    8.6468 C.ar    1  UNL1       -0.0027
     29 C          59.9461   88.9583    8.1953 C.ar    1  UNL1       -0.0031
     30 C          60.0351   87.6999    9.0068 C.ar    1  UNL1        0.0346
     31 O          60.9329   86.4195   11.0816 O.3     1  UNL1       -0.4504
     32 C          62.6193   84.6362   11.9334 C.ar    1  UNL1        0.1730
     33 C          63.7079   83.6417   11.6582 C.ar    1  UNL1        0.0401
     34 C          64.1988   83.4359   10.2558 C.ar    1  UNL1        0.0033
     35 C          63.6010   84.2247    9.1286 C.ar    1  UNL1        0.0033
     36 C          62.5124   85.2192    9.4039 C.ar    1  UNL1        0.0406
     37 C          62.0215   85.4249   10.8063 C.ar    1  UNL1        0.1789
     38 C          62.6670   83.9952   14.4507 C.3     1  UNL1        0.2526
     39 O          62.1285   84.8419   13.3359 O.3     1  UNL1       -0.4684
@<TRIPOS>BOND
     1    38    39    1
     2    39    32    1
     3    32    33   ar
     4    33    34   ar
     5    34    35   ar
     6    35    36   ar
     7    36    37   ar
     8    37    31    1
     9    31    25    1
    10    25    26   ar
    11    26    27   ar
    12    27    28   ar
    13    28    29   ar
    14    29    24    1
    15    24     1    1
    16     1     2    1
    17     2     3    1
    18     3     4    1
    19     4     7    1
    20     7     8   am
    21     8     9    2
    22     8    11    1
    23    11    18    1
    24    18    19   ar
    25    19    20   ar
    26    20    21   ar
    27    21    22   ar
    28    22    23   ar
    29    11    12    1
    30    12    13    1
    31    13    14    1
    32    14    15    1
    33    15    16    1
    34     4     5    1
    35     5     6    1
    36    29    30   ar
    37    37    32   ar
    38    30    25   ar
    39     6     1    1
    40    16    11    1
    41    23    18   ar
    42     7    10    1
    43    14    17    1
@<TRIPOS>MOLECULE
*****
 39 43 0 0 0
SMALL
GASTEIGER

@<TRIPOS>ATOM
      1 N          70.8788   76.7689   13.0453 N.3     1  UNL1       -0.2688
      2 C          71.4479   75.6941   12.1674 C.3     1  UNL1        0.0741
      3 C          71.8443   74.3739   12.7591 C.3     1  UNL1        0.0369
      4 C          71.6716   74.1286   14.2288 C.3     1  UNL1        0.0743
      5 C          71.1024   75.2035   15.1068 C.3     1  UNL1        0.0369
      6 C          70.7060   76.5236   14.5150 C.3     1  UNL1        0.0741
      7 N          72.0679   72.8085   14.8205 N.am    1  UNL1       -0.3056
      8 C          71.1554   72.1166   15.7893 C.2     1  UNL1        0.2254
      9 O          69.8465   72.7448   16.1663 O.2     1  UNL1       -0.2748
     10 H          72.9270   72.3962   14.5731 H       1  UNL1        0.1494
     11 C          71.5517   70.7965   16.3811 C.3     1  UNL1        0.0902
     12 C          71.1251   70.3514   15.0137 C.3     1  UNL1        0.0298
     13 C          71.1952   68.9000   14.6416 C.3     1  UNL1        0.0694
     14 N          71.6919   67.8936   15.6369 N.3     1  UNL1       -0.2974
     15 C          72.1185   68.3387   17.0043 C.3     1  UNL1        0.0694
     16 C          72.0484   69.7902   17.3765 C.3     1  UNL1        0.0298
     17 H          72.4969   67.4326   15.2129 H       1  UNL1        0.1232
     18 C          71.8407   71.7001   17.5430 C.ar    1  UNL1       -0.0145
     19 C          70.8346   71.8492   18.6455 C.ar    1  UNL1       -0.0038
     20 C          71.1235   72.7528   19.8074 C.ar    1  UNL1       -0.0003
     21 C          72.4186   73.5073   19.8668 C.ar    1  UNL1       -0.0000
     22 C          73.4247   73.3582   18.7644 C.ar    1  UNL1       -0.0003
     23 C          73.1357   72.4546   17.6024 C.ar    1  UNL1       -0.0038
     24 C          70.4824   78.0890   12.4536 C.3     1  UNL1        0.0992
     25 C          73.0923   79.7409    9.9616 C.ar    1  UNL1        0.1452
     26 C          73.6297   80.8543   10.8111 C.ar    1  UNL1        0.0375
     27 C          73.1180   81.0459   12.2080 C.ar    1  UNL1        0.0029
     28 C          72.0689   80.1241   12.7555 C.ar    1  UNL1       -0.0027
     29 C          71.5315   79.0108   11.9061 C.ar    1  UNL1       -0.0031
     30 C          72.0432   78.8191   10.5091 C.ar    1  UNL1        0.0346
     31 O          73.6039   79.5493    8.5647 O.3     1  UNL1       -0.4504
     32 C          72.4568   81.4030    7.1511 C.ar    1  UNL1        0.1730
     33 C          71.6107   81.8073    5.9804 C.ar    1  UNL1        0.0401
     34 C          71.0656   80.7624    5.0525 C.ar    1  UNL1        0.0033
     35 C          71.3666   79.3131    5.2953 C.ar    1  UNL1        0.0033
     36 C          72.2127   78.9088    6.4660 C.ar    1  UNL1        0.0406
     37 C          72.7578   79.9537    7.3939 C.ar    1  UNL1        0.1789
     38 C          72.0661   83.3704    8.8022 C.3     1  UNL1        0.2526
     39 O          73.0019   82.4479    8.0790 O.3     1  UNL1       -0.4684
@<TRIPOS>BOND
     1    38    39    1
     2    39    32    1
     3    32    33   ar
     4    33    34   ar
     5    34    35   ar
     6    35    36   ar
     7    36    37   ar
     8    37    31    1
     9    31    25    1
    10    25    26   ar
    11    26    27   ar
    12    27    28   ar
    13    28    29   ar
    14    29    24    1
    15    24     1    1
    16     1     2    1
    17     2     3    1
    18     3     4    1
    19     4     7    1
    20     7     8   am
    21     8     9    2
    22     8    11    1
    23    11    18    1
    24    18    19   ar
    25    19    20   ar
    26    20    21   ar
    27    21    22   ar
    28    22    23   ar
    29    11    12    1
    30    12    13    1
    31    13    14    1
    32    14    15    1
    33    15    16    1
    34     4     5    1
    35     5     6    1
    36    29    30   ar
    37    37    32   ar
    38    30    25   ar
    39     6     1    1
    40    16    11    1
    41    23    18   ar
    42     7    10    1
    43    14    17    1
@<TRIPOS>MOLECULE
*****
 39 43 0 0 0
SMALL
GASTEIGER

@<TRIPOS>ATOM
      1 N          63.6251   87.1798   13.5562 N.3     1  UNL1       -0.2688
      2 C          64.3964   87.8334   14.6642 C.3     1  UNL1        0.0741
      3 C          64.7071   89.2995   14.5984 C.3     1  UNL1        0.0369
      4 C          64.2464   90.1118   13.4245 C.3     1  UNL1        0.0743
      5 C          63.4750   89.4581   12.3165 C.3     1  UNL1        0.0369
      6 C          63.1644   87.9921   12.3823 C.3     1  UNL1        0.0741
      7 N          64.5571   91.5778   13.3587 N.am    1  UNL1       -0.3056
      8 C          65.7729   92.0543   12.6208 C.2     1  UNL1        0.2254
      9 O          66.6781   91.0649   11.9487 O.2     1  UNL1       -0.2748
     10 H          63.9630   92.2271   13.7998 H       1  UNL1        0.1494
     11 C          66.0836   93.5204   12.5549 C.3     1  UNL1        0.0902
     12 C          65.3120   93.3601   11.2787 C.3     1  UNL1        0.0298
     13 C          65.0816   94.5446   10.3877 C.3     1  UNL1        0.0694
     14 N          65.6228   95.8895   10.7731 N.3     1  UNL1       -0.2974
     15 C          66.3944   96.0497   12.0493 C.3     1  UNL1        0.0694
     16 C          66.6249   94.8652   12.9403 C.3     1  UNL1        0.0298
     17 H          64.8252   96.5226   10.8298 H       1  UNL1        0.1232
     18 C          66.7474   93.1715   13.8541 C.ar    1  UNL1       -0.0145
     19 C          68.2150   92.8638   13.8876 C.ar    1  UNL1       -0.0038
     20 C          68.8788   92.5150   15.1868 C.ar    1  UNL1       -0.0003
     21 C          68.0747   92.4738   16.4524 C.ar    1  UNL1       -0.0000
     22 C          66.6070   92.7815   16.4189 C.ar    1  UNL1       -0.0003
     23 C          65.9433   93.1304   15.1197 C.ar    1  UNL1       -0.0038
     24 C          63.3144   85.7138   13.6220 C.3     1  UNL1        0.0992
     25 C          63.2728   84.4552    9.8584 C.ar    1  UNL1        0.1452
     26 C          63.9360   83.1172    9.9997 C.ar    1  UNL1        0.0375
     27 C          64.3920   82.6448   11.3483 C.ar    1  UNL1        0.0029
     28 C          64.1848   83.5103   12.5557 C.ar    1  UNL1       -0.0027
     29 C          63.5216   84.8483   12.4145 C.ar    1  UNL1       -0.0031
     30 C          63.0656   85.3208   11.0659 C.ar    1  UNL1        0.0346
     31 O          62.8168   84.9276    8.5098 O.3     1  UNL1       -0.4504
     32 C          60.5960   85.7384    7.4324 C.ar    1  UNL1        0.1730
     33 C          59.4999   86.7568    7.3256 C.ar    1  UNL1        0.0401
     34 C          59.5284   87.9828    8.1894 C.ar    1  UNL1        0.0033
     35 C          60.6531   88.1904    9.1600 C.ar    1  UNL1        0.0033
     36 C          61.7492   87.1721    9.2667 C.ar    1  UNL1        0.0406
     37 C          61.7206   85.9460    8.4030 C.ar    1  UNL1        0.1789
     38 C          61.6612   84.2724    5.5707 C.3     1  UNL1        0.2526
     39 O          60.5674   84.5124    6.5687 O.3     1  UNL1       -0.4684
@<TRIPOS>BOND
     1    38    39    1
     2    39    32    1
     3    32    33   ar
     4    33    34   ar
     5    34    35   ar
     6    35    36   ar
     7    36    37   ar
     8    37    31    1
     9    31    25    1
    10    25    26   ar
    11    26    27   ar
    12    27    28   ar
    13    28    29   ar
    14    29    24    1
    15    24     1    1
    16     1     2    1
    17     2     3    1
    18     3     4    1
    19     4     7    1
    20     7     8   am
    21     8     9    2
    22     8    11    1
    23    11    18    1
    24    18    19   ar
    25    19    20   ar
    26    20    21   ar
    27    21    22   ar
    28    22    23   ar
    29    11    12    1
    30    12    13    1
    31    13    14    1
    32    14    15    1
    33    15    16    1
    34     4     5    1
    35     5     6    1
    36    29    30   ar
    37    37    32   ar
    38    30    25   ar
    39     6     1    1
    40    16    11    1
    41    23    18   ar
    42     7    10    1
    43    14    17    1
