@<TRIPOS>MOLECULE
*****
 62 68 0 0 0
SMALL
GASTEIGER

@<TRIPOS>ATOM
      1 C          59.9597   91.7566    3.6809 C.ar    1  UNL1        0.0000
      2 C          61.2468   91.2077    4.2216 C.ar    1  UNL1        0.0000
      3 C          61.2442   90.3916    5.4801 C.ar    1  UNL1        0.0015
      4 C          59.9545   90.1244    6.1980 C.ar    1  UNL1        0.0172
      5 C          58.6675   90.6733    5.6573 C.ar    1  UNL1        0.0015
      6 C          58.6701   91.4894    4.3988 C.ar    1  UNL1        0.0000
      7 C          59.9678   94.2050   -0.0948 C.ar    1  UNL1        0.0172
      8 C          58.7097   93.5222    0.3537 C.ar    1  UNL1        0.0015
      9 C          58.7071   92.7061    1.6122 C.ar    1  UNL1        0.0000
     10 C          59.9624   92.5728    2.4223 C.ar    1  UNL1        0.0000
     11 C          61.2204   93.2556    1.9739 C.ar    1  UNL1        0.0000
     12 C          61.2231   94.0717    0.7155 C.ar    1  UNL1        0.0015
     13 C          59.6782   95.6993   -3.6653 C.ar    1  UNL1        0.1353
     14 N          60.2714   96.8547   -2.9148 N.ar    1  UNL1       -0.2279
     15 C          60.4521   96.4356   -1.4860 C.ar    1  UNL1        0.1171
     16 C          59.9706   95.0211   -1.3532 C.ar    1  UNL1        0.0769
     17 N          59.4922   94.5661   -2.7002 N.ar    1  UNL1       -0.3394
     18 H          59.1213   93.6794   -2.9134 H       1  UNL1        0.1671
     19 C          56.7129   95.1827   -4.9260 C.2     1  UNL1        0.2439
     20 O          56.7539   95.1431   -3.4271 O.2     1  UNL1       -0.2731
     21 N          57.9686   95.4429   -5.7041 N.am    1  UNL1       -0.2730
     22 C          58.0819   95.5113   -7.1982 C.3     1  UNL1        0.0939
     23 C          59.5148   95.7910   -7.5421 C.3     1  UNL1        0.0237
     24 C          60.2872   95.8954   -6.2606 C.3     1  UNL1        0.0293
     25 C          59.3317   95.6803   -5.1246 C.3     1  UNL1        0.1319
     26 C          55.4161   94.9622   -5.6468 C.3     1  UNL1        0.1512
     27 C          55.6751   92.4082   -6.0467 C.2     1  UNL1        0.4021
     28 O          56.2803   92.2560   -4.6827 O.2     1  UNL1       -0.2264
     29 N          55.2430   93.7612   -6.5288 N.am    1  UNL1       -0.2640
     30 H          54.8458   93.8611   -7.4240 H       1  UNL1        0.1532
     31 C          54.3937   90.2329   -6.6600 C.3     1  UNL1        0.2573
     32 O          55.5021   91.2072   -6.9286 O.3     1  UNL1       -0.4306
     33 C          54.2923   95.9426   -5.4858 C.3     1  UNL1        0.0270
     34 C          53.9674   96.4949   -4.1294 C.3     1  UNL1        0.0022
     35 C          53.4934   96.3707   -6.6809 C.3     1  UNL1        0.0022
     36 C          59.9518   89.3083    7.4565 C.ar    1  UNL1        0.0769
     37 C          58.7703   88.5919    8.0403 C.ar    1  UNL1        0.1171
     38 N          59.2185   87.9061    9.2968 N.ar    1  UNL1       -0.2279
     39 C          60.6770   88.1986    9.4896 C.ar    1  UNL1        0.1355
     40 N          61.1302   89.0652    8.3523 N.ar    1  UNL1       -0.3394
     41 H          62.0412   89.4133    8.2174 H       1  UNL1        0.1671
     42 C          61.5322   87.7104   10.6211 C.3     1  UNL1        0.1369
     43 C          61.7455   86.2775   11.0103 C.3     1  UNL1        0.0855
     44 C          62.6693   86.2507   12.1918 C.3     1  UNL1        0.2077
     45 C          63.0270   87.6671   12.5327 C.3     1  UNL1        0.1499
     46 N          62.3242   88.5691   11.5620 N.am    1  UNL1       -0.2680
     47 C          62.4000   90.0670   11.5365 C.2     1  UNL1        0.2440
     48 O          61.6379   90.8391   10.5007 O.2     1  UNL1       -0.2731
     49 O          62.3117   84.8344   11.8508 O.3     1  UNL1       -0.3300
     50 C          63.0145   83.9324   12.8216 C.3     1  UNL1        0.1767
     51 C          63.8065   84.7911   13.7625 C.3     1  UNL1        0.1767
     52 O          63.5932   86.2240   13.3732 O.3     1  UNL1       -0.3300
     53 C          63.2381   90.7927   12.5470 C.3     1  UNL1        0.1512
     54 N          62.8573   90.7629   13.9976 N.am    1  UNL1       -0.2640
     55 C          63.6601   89.9470   14.9671 C.2     1  UNL1        0.4021
     56 O          64.8437   89.1609   14.4860 O.2     1  UNL1       -0.2264
     57 H          62.0805   91.2788   14.3133 H       1  UNL1        0.1532
     58 O          63.2794   89.9172   16.4177 O.3     1  UNL1       -0.4306
     59 C          62.9936   88.6079   17.0914 C.3     1  UNL1        0.2573
     60 C          64.4569   91.5482   12.1069 C.3     1  UNL1        0.0270
     61 C          65.5559   91.8352   13.0867 C.3     1  UNL1        0.0022
     62 C          64.5767   92.0167   10.6870 C.3     1  UNL1        0.0022
@<TRIPOS>BOND
     1    31    32    1
     2    32    27    1
     3    27    28    2
     4    27    29   am
     5    26    29    1
     6    26    19    1
     7    19    20    2
     8    19    21   am
     9    21    22    1
    10    22    23    1
    11    23    24    1
    12    24    25    1
    13    25    13    1
    14    13    14   ar
    15    14    15   ar
    16    15    16   ar
    17    16     7    1
    18     7     8   ar
    19     8     9   ar
    20     9    10   ar
    21    10     1    1
    22     1     2   ar
    23     2     3   ar
    24     3     4   ar
    25     4    36    1
    26    36    37   ar
    27    37    38   ar
    28    38    39   ar
    29    42    39    1
    30    42    43    1
    31    43    44    1
    32    44    45    1
    33    45    46    1
    34    46    47   am
    35    47    48    2
    36    47    53    1
    37    53    54    1
    38    54    55   am
    39    55    56    2
    40    55    58    1
    41    58    59    1
    42    53    60    1
    43    60    61    1
    44    60    62    1
    45    44    49    1
    46    49    50    1
    47    50    51    1
    48    51    52    1
    49    39    40   ar
    50     4     5   ar
    51     5     6   ar
    52    10    11   ar
    53    11    12   ar
    54    16    17   ar
    55    26    33    1
    56    33    34    1
    57    33    35    1
    58    25    21    1
    59    17    13   ar
    60    12     7   ar
    61     6     1   ar
    62    40    36   ar
    63    46    42    1
    64    52    44    1
    65    29    30    1
    66    54    57    1
    67    40    41    1
    68    17    18    1
@<TRIPOS>MOLECULE
*****
 62 68 0 0 0
SMALL
GASTEIGER

@<TRIPOS>ATOM
      1 C          59.9013   91.8947    3.7551 C.ar    1  UNL1        0.0000
      2 C          61.2346   91.3675    4.1961 C.ar    1  UNL1        0.0000
      3 C          61.3479   90.5881    5.4726 C.ar    1  UNL1        0.0015
      4 C          60.1280   90.3358    6.3082 C.ar    1  UNL1        0.0172
      5 C          58.7948   90.8630    5.8672 C.ar    1  UNL1        0.0015
      6 C          58.6814   91.6425    4.5906 C.ar    1  UNL1        0.0000
      7 C          59.5615   94.2331   -0.0746 C.ar    1  UNL1        0.0172
      8 C          58.5607   93.1613    0.2411 C.ar    1  UNL1        0.0015
      9 C          58.6740   92.3819    1.5176 C.ar    1  UNL1        0.0000
     10 C          59.7880   92.6742    2.4785 C.ar    1  UNL1        0.0000
     11 C          60.7888   93.7460    2.1629 C.ar    1  UNL1        0.0000
     12 C          60.6756   94.5254    0.8864 C.ar    1  UNL1        0.0015
     13 C          59.2432   95.5713   -3.7041 C.ar    1  UNL1        0.1353
     14 N          59.3050   96.8529   -2.9271 N.ar    1  UNL1       -0.2279
     15 C          59.4318   96.5076   -1.4729 C.ar    1  UNL1        0.1171
     16 C          59.4483   95.0126   -1.3511 C.ar    1  UNL1        0.0769
     17 N          59.3318   94.4339   -2.7301 N.ar    1  UNL1       -0.3394
     18 H          59.3161   93.4759   -2.9563 H       1  UNL1        0.1671
     19 C          56.4990   94.9224   -5.3465 C.2     1  UNL1        0.2439
     20 O          56.3194   94.9844   -3.8587 O.2     1  UNL1       -0.2731
     21 N          57.8539   95.1502   -5.9485 N.am    1  UNL1       -0.2730
     22 C          58.1853   95.1198   -7.4111 C.3     1  UNL1        0.0939
     23 C          59.6514   95.3993   -7.5601 C.3     1  UNL1        0.0237
     24 C          60.2262   95.6024   -6.1896 C.3     1  UNL1        0.0293
     25 C          59.1153   95.4485   -5.1936 C.3     1  UNL1        0.1319
     26 C          55.3238   94.6325   -6.2324 C.3     1  UNL1        0.1512
     27 C          55.4624   92.0383   -6.2649 C.2     1  UNL1        0.4021
     28 O          55.7412   92.0348   -4.7910 O.2     1  UNL1       -0.2264
     29 N          55.2537   93.3372   -6.9856 N.am    1  UNL1       -0.2640
     30 H          55.0708   93.3395   -7.9529 H       1  UNL1        0.1532
     31 C          54.1859   89.8618   -6.8840 C.3     1  UNL1        0.2573
     32 O          55.3924   90.7430   -7.0180 O.3     1  UNL1       -0.4306
     33 C          54.2187   95.6380   -6.3652 C.3     1  UNL1        0.0270
     34 C          54.0186   96.6774   -5.3023 C.3     1  UNL1        0.0022
     35 C          53.3136   95.6042   -7.5609 C.3     1  UNL1        0.0022
     36 C          60.2413   89.5563    7.5847 C.ar    1  UNL1        0.0769
     37 C          59.2924   88.4948    8.0568 C.ar    1  UNL1        0.1171
     38 N          59.7881   87.9839    9.3772 N.ar    1  UNL1       -0.2279
     39 C          61.0433   88.7297    9.7212 C.ar    1  UNL1        0.1355
     40 N          61.3234   89.7015    8.6134 N.ar    1  UNL1       -0.3394
     41 H          62.0839   90.3251    8.5692 H       1  UNL1        0.1671
     42 C          61.8727   88.5375   10.9560 C.3     1  UNL1        0.1369
     43 C          62.4406   89.6281   11.8152 C.3     1  UNL1        0.0855
     44 C          63.1988   88.9857   12.9388 C.3     1  UNL1        0.2077
     45 C          63.0995   87.4980   12.7741 C.3     1  UNL1        0.1499
     46 N          62.2799   87.2211   11.5487 N.am    1  UNL1       -0.2680
     47 C          61.9291   85.8657   11.0103 C.2     1  UNL1        0.2440
     48 O          61.0971   85.7443    9.7682 O.2     1  UNL1       -0.2731
     49 O          63.2982   90.4733   13.1035 O.3     1  UNL1       -0.3300
     50 C          64.1177   90.7502   14.3289 C.3     1  UNL1        0.1767
     51 C          64.5249   89.4338   14.9215 C.3     1  UNL1        0.1767
     52 O          63.9570   88.3432   14.0624 O.3     1  UNL1       -0.3300
     53 C          62.4103   84.6317   11.7143 C.3     1  UNL1        0.1512
     54 N          62.2147   84.4881   13.1945 N.am    1  UNL1       -0.2640
     55 C          63.4047   84.4254   14.1057 C.2     1  UNL1        0.4021
     56 O          64.7902   84.5063   13.5366 O.2     1  UNL1       -0.2264
     57 H          61.3054   84.4349   13.5680 H       1  UNL1        0.1532
     58 O          63.2091   84.2818   15.5859 O.3     1  UNL1       -0.4306
     59 C          63.0868   85.5030   16.4483 C.3     1  UNL1        0.2573
     60 C          63.0871   83.5411   10.9380 C.3     1  UNL1        0.0270
     61 C          63.8175   83.8662    9.6688 C.3     1  UNL1        0.0022
     62 C          63.0336   82.1254   11.4309 C.3     1  UNL1        0.0022
@<TRIPOS>BOND
     1    31    32    1
     2    32    27    1
     3    27    28    2
     4    27    29   am
     5    26    29    1
     6    26    19    1
     7    19    20    2
     8    19    21   am
     9    21    22    1
    10    22    23    1
    11    23    24    1
    12    24    25    1
    13    25    13    1
    14    13    14   ar
    15    14    15   ar
    16    15    16   ar
    17    16     7    1
    18     7     8   ar
    19     8     9   ar
    20     9    10   ar
    21    10     1    1
    22     1     2   ar
    23     2     3   ar
    24     3     4   ar
    25     4    36    1
    26    36    37   ar
    27    37    38   ar
    28    38    39   ar
    29    42    39    1
    30    42    43    1
    31    43    44    1
    32    44    45    1
    33    45    46    1
    34    46    47   am
    35    47    48    2
    36    47    53    1
    37    53    54    1
    38    54    55   am
    39    55    56    2
    40    55    58    1
    41    58    59    1
    42    53    60    1
    43    60    61    1
    44    60    62    1
    45    44    49    1
    46    49    50    1
    47    50    51    1
    48    51    52    1
    49    39    40   ar
    50     4     5   ar
    51     5     6   ar
    52    10    11   ar
    53    11    12   ar
    54    16    17   ar
    55    26    33    1
    56    33    34    1
    57    33    35    1
    58    25    21    1
    59    17    13   ar
    60    12     7   ar
    61     6     1   ar
    62    40    36   ar
    63    46    42    1
    64    52    44    1
    65    29    30    1
    66    54    57    1
    67    40    41    1
    68    17    18    1
@<TRIPOS>MOLECULE
*****
 62 68 0 0 0
SMALL
GASTEIGER

@<TRIPOS>ATOM
      1 C          59.9929   91.7810    3.7913 C.ar    1  UNL1        0.0000
      2 C          61.3057   91.2692    4.3059 C.ar    1  UNL1        0.0000
      3 C          61.3532   90.4652    5.5712 C.ar    1  UNL1        0.0015
      4 C          60.0879   90.1727    6.3220 C.ar    1  UNL1        0.0172
      5 C          58.7752   90.6845    5.8074 C.ar    1  UNL1        0.0015
      6 C          58.7276   91.4886    4.5420 C.ar    1  UNL1        0.0000
      7 C          59.8506   94.1933   -0.0049 C.ar    1  UNL1        0.0172
      8 C          58.6810   93.3390    0.3851 C.ar    1  UNL1        0.0015
      9 C          58.7284   92.5349    1.6505 C.ar    1  UNL1        0.0000
     10 C          59.9455   92.5851    2.5259 C.ar    1  UNL1        0.0000
     11 C          61.1151   93.4395    2.1359 C.ar    1  UNL1        0.0000
     12 C          61.0677   94.2435    0.8706 C.ar    1  UNL1        0.0015
     13 C          59.5704   95.6137   -3.6061 C.ar    1  UNL1        0.1353
     14 N          59.8905   96.8560   -2.8288 N.ar    1  UNL1       -0.2279
     15 C          60.0344   96.4751   -1.3851 C.ar    1  UNL1        0.1171
     16 C          59.8033   94.9975   -1.2702 C.ar    1  UNL1        0.0769
     17 N          59.5165   94.4651   -2.6429 N.ar    1  UNL1       -0.3394
     18 H          59.3263   93.5266   -2.8716 H       1  UNL1        0.1671
     19 C          56.7458   94.9054   -5.0791 C.2     1  UNL1        0.2439
     20 O          56.6680   94.9118   -3.5812 O.2     1  UNL1       -0.2731
     21 N          58.0456   95.2084   -5.7638 N.am    1  UNL1       -0.2730
     22 C          58.2752   95.2390   -7.2458 C.3     1  UNL1        0.0939
     23 C          59.7154   95.5834   -7.4847 C.3     1  UNL1        0.0237
     24 C          60.3759   95.7657   -6.1503 C.3     1  UNL1        0.0293
     25 C          59.3439   95.5339   -5.0868 C.3     1  UNL1        0.1319
     26 C          55.5240   94.5960   -5.8923 C.3     1  UNL1        0.1512
     27 C          55.7711   92.0103   -5.8338 C.2     1  UNL1        0.4021
     28 O          56.2877   92.0915   -4.4279 O.2     1  UNL1       -0.2264
     29 N          55.3892   93.2625   -6.5660 N.am    1  UNL1       -0.2640
     30 H          55.0501   93.2092   -7.4887 H       1  UNL1        0.1532
     31 C          54.5885   90.4713   -7.5608 C.3     1  UNL1        0.2573
     32 O          55.6363   90.6769   -6.5074 O.3     1  UNL1       -0.4306
     33 C          54.4369   95.6201   -6.0318 C.3     1  UNL1        0.0270
     34 C          54.0450   96.4631   -4.8546 C.3     1  UNL1        0.0022
     35 C          53.7416   95.8011   -7.3486 C.3     1  UNL1        0.0022
     36 C          60.1354   89.3687    7.5873 C.ar    1  UNL1        0.0769
     37 C          59.0067   88.5677    8.1659 C.ar    1  UNL1        0.1171
     38 N          59.4936   87.9284    9.4324 N.ar    1  UNL1       -0.2279
     39 C          60.9232   88.3341    9.6367 C.ar    1  UNL1        0.1355
     40 N          61.3198   89.2243    8.4964 N.ar    1  UNL1       -0.3394
     41 H          62.2025   89.6406    8.3672 H       1  UNL1        0.1671
     42 C          61.8019   87.9221   10.7804 C.3     1  UNL1        0.1369
     43 C          62.0262   86.5182   11.2585 C.3     1  UNL1        0.0855
     44 C          62.9735   86.5700   12.4204 C.3     1  UNL1        0.2077
     45 C          63.3346   88.0060   12.6604 C.3     1  UNL1        0.1499
     46 N          62.6104   88.8416   11.6468 N.am    1  UNL1       -0.2680
     47 C          62.6823   90.3347   11.5216 C.2     1  UNL1        0.2440
     48 O          61.8978   91.0363   10.4527 O.2     1  UNL1       -0.2731
     49 O          62.6125   85.1340   12.1804 O.3     1  UNL1       -0.3300
     50 C          63.3366   84.2984   13.1940 C.3     1  UNL1        0.1767
     51 C          64.1452   85.2179   14.0604 C.3     1  UNL1        0.1767
     52 O          63.9208   86.6219   13.5823 O.3     1  UNL1       -0.3300
     53 C          63.5385   91.1260   12.4652 C.3     1  UNL1        0.1512
     54 N          64.0315   92.4863   12.0694 N.am    1  UNL1       -0.2640
     55 C          65.4742   92.6859   11.7100 C.2     1  UNL1        0.4021
     56 O          66.4238   91.5253   11.7465 O.2     1  UNL1       -0.2264
     57 H          63.4083   93.2480   12.0454 H       1  UNL1        0.1532
     58 O          65.9672   94.0461   11.3142 O.3     1  UNL1       -0.4306
     59 C          66.5321   94.2694    9.9427 C.3     1  UNL1        0.2573
     60 C          63.9019   90.5572   13.8048 C.3     1  UNL1        0.0270
     61 C          62.8245   90.0958   14.7410 C.3     1  UNL1        0.0022
     62 C          65.3426   90.4497   14.2082 C.3     1  UNL1        0.0022
@<TRIPOS>BOND
     1    31    32    1
     2    32    27    1
     3    27    28    2
     4    27    29   am
     5    26    29    1
     6    26    19    1
     7    19    20    2
     8    19    21   am
     9    21    22    1
    10    22    23    1
    11    23    24    1
    12    24    25    1
    13    25    13    1
    14    13    14   ar
    15    14    15   ar
    16    15    16   ar
    17    16     7    1
    18     7     8   ar
    19     8     9   ar
    20     9    10   ar
    21    10     1    1
    22     1     2   ar
    23     2     3   ar
    24     3     4   ar
    25     4    36    1
    26    36    37   ar
    27    37    38   ar
    28    38    39   ar
    29    42    39    1
    30    42    43    1
    31    43    44    1
    32    44    45    1
    33    45    46    1
    34    46    47   am
    35    47    48    2
    36    47    53    1
    37    53    54    1
    38    54    55   am
    39    55    56    2
    40    55    58    1
    41    58    59    1
    42    53    60    1
    43    60    61    1
    44    60    62    1
    45    44    49    1
    46    49    50    1
    47    50    51    1
    48    51    52    1
    49    39    40   ar
    50     4     5   ar
    51     5     6   ar
    52    10    11   ar
    53    11    12   ar
    54    16    17   ar
    55    26    33    1
    56    33    34    1
    57    33    35    1
    58    25    21    1
    59    17    13   ar
    60    12     7   ar
    61     6     1   ar
    62    40    36   ar
    63    46    42    1
    64    52    44    1
    65    29    30    1
    66    54    57    1
    67    40    41    1
    68    17    18    1
