@<TRIPOS>MOLECULE
*****
 53 59 0 0 0
SMALL
GASTEIGER

@<TRIPOS>ATOM
      1 N          59.9740   92.6366    2.9495 N.ar    1  UNL1       -0.1285
      2 N          58.9582   93.3110    2.0759 N.ar    1  UNL1       -0.0406
      3 N          59.6935   94.1408    1.0656 N.ar    1  UNL1       -0.1074
      4 C          61.1639   93.9791    1.3148 C.ar    1  UNL1        0.2075
      5 N          61.3372   93.0495    2.4791 N.ar    1  UNL1       -0.1253
      6 C          59.0875   89.8617    6.3794 C.ar    1  UNL1       -0.0207
      7 C          60.4976   90.0308    5.8967 C.ar    1  UNL1       -0.0026
      8 C          60.7931   90.9558    4.7534 C.ar    1  UNL1        0.0206
      9 C          59.6785   91.7116    4.0928 C.ar    1  UNL1        0.1045
     10 C          58.2684   91.5425    4.5755 C.ar    1  UNL1        0.0206
     11 C          57.9729   90.6175    5.7188 C.ar    1  UNL1       -0.0026
     12 C          58.7920   88.9367    7.5227 C.3     1  UNL1        0.0437
     13 C          59.6397   87.7185    7.7402 C.3     1  UNL1        0.0771
     14 C          63.5994   86.0506   13.1058 C.ar    1  UNL1        0.1721
     15 C          63.2438   87.3874   12.5258 C.ar    1  UNL1        0.0356
     16 C          62.3428   87.4702   11.3293 C.ar    1  UNL1       -0.0202
     17 C          61.7974   86.2161   10.7130 C.ar    1  UNL1       -0.0068
     18 C          62.1530   84.8793   11.2930 C.ar    1  UNL1        0.0368
     19 C          63.0540   84.7965   12.4894 C.ar    1  UNL1        0.1721
     20 C          60.8964   86.2989    9.5166 C.3     1  UNL1        0.0990
     21 N          60.5408   87.6357    8.9366 N.3     1  UNL1       -0.2683
     22 C          61.0861   88.8898    9.5530 C.3     1  UNL1        0.0771
     23 C          61.9871   88.8070   10.7494 C.3     1  UNL1        0.0435
     24 C          63.9294   86.1073   15.6822 C.3     1  UNL1        0.2526
     25 O          64.5005   85.9678   14.3022 O.3     1  UNL1       -0.4684
     26 O          63.4097   83.4597   13.0695 O.3     1  UNL1       -0.4684
     27 C          62.7092   82.2233   12.5891 C.3     1  UNL1        0.2526
     28 C          62.2671   94.6324    0.5363 C.ar    1  UNL1        0.0560
     29 C          63.3339   95.4063    1.2525 C.ar    1  UNL1        0.0444
     30 C          64.4371   96.0596    0.4740 C.ar    1  UNL1        0.1726
     31 C          64.4736   95.9389   -1.0207 C.ar    1  UNL1        0.1736
     32 C          63.4069   95.1650   -1.7368 C.ar    1  UNL1        0.0548
     33 C          62.3036   94.5117   -0.9584 C.ar    1  UNL1        0.0568
     34 N          61.2368   93.7377   -1.6746 N.am    1  UNL1       -0.2802
     35 C          60.1777   94.4626   -2.4512 C.2     1  UNL1        0.2495
     36 O          60.1855   95.9613   -2.5115 O.2     1  UNL1       -0.2698
     37 H          61.2317   92.7540   -1.6350 H       1  UNL1        0.1552
     38 C          59.1109   93.6887   -3.1674 C.ar    1  UNL1        0.0537
     39 C          58.1969   92.7822   -2.3973 C.ar    1  UNL1        0.0045
     40 C          57.1302   92.0084   -3.1136 C.ar    1  UNL1        0.0001
     41 C          56.9774   92.1409   -4.5999 C.ar    1  UNL1        0.0001
     42 C          57.8914   93.0474   -5.3700 C.ar    1  UNL1        0.0001
     43 C          58.9581   93.8212   -4.6537 C.ar    1  UNL1        0.0045
     44 C          55.9105   91.3670   -5.3162 C.ar    1  UNL1        0.0031
     45 C          55.1755   90.2691   -4.6059 C.ar    1  UNL1        0.0207
     46 C          54.1087   89.4952   -5.3221 C.ar    1  UNL1        0.0989
     47 N          53.7769   89.8192   -6.7487 N.ar    1  UNL1       -0.2423
     48 C          54.5119   90.9170   -7.4589 C.ar    1  UNL1        0.0989
     49 C          55.5787   91.6910   -6.7427 C.ar    1  UNL1        0.0207
     50 O          65.5039   96.8335    1.1903 O.3     1  UNL1       -0.4684
     51 C          65.6972   96.6542    2.6669 C.3     1  UNL1        0.2526
     52 O          65.5769   96.5922   -1.7991 O.3     1  UNL1       -0.4683
     53 C          65.7214   96.3208   -3.2672 C.3     1  UNL1        0.2526
@<TRIPOS>BOND
     1    24    25    1
     2    25    14    1
     3    14    15   ar
     4    15    16   ar
     5    16    17   ar
     6    17    18   ar
     7    18    19   ar
     8    19    26    1
     9    26    27    1
    10    17    20    1
    11    20    21    1
    12    21    13    1
    13    13    12    1
    14    12     6    1
    15     6     7   ar
    16     7     8   ar
    17     8     9   ar
    18     9     1    1
    19     1     2   ar
    20     2     3   ar
    21     3     4   ar
    22     4    28    1
    23    28    29   ar
    24    29    30   ar
    25    30    50    1
    26    50    51    1
    27    30    31   ar
    28    31    52    1
    29    52    53    1
    30    31    32   ar
    31    32    33   ar
    32    33    34    1
    33    34    35   am
    34    35    36    2
    35    35    38    1
    36    38    39   ar
    37    39    40   ar
    38    40    41   ar
    39    41    44    1
    40    44    45   ar
    41    45    46   ar
    42    46    47   ar
    43    47    48   ar
    44    48    49   ar
    45    41    42   ar
    46    42    43   ar
    47     4     5   ar
    48     9    10   ar
    49    10    11   ar
    50    21    22    1
    51    22    23    1
    52    19    14   ar
    53    11     6   ar
    54    23    16    1
    55     5     1   ar
    56    33    28   ar
    57    43    38   ar
    58    49    44   ar
    59    34    37    1
@<TRIPOS>MOLECULE
*****
 53 59 0 0 0
SMALL
GASTEIGER

@<TRIPOS>ATOM
      1 N          61.4773   86.9644    9.3547 N.ar    1  UNL1       -0.1285
      2 N          62.3975   85.8450    8.9672 N.ar    1  UNL1       -0.0406
      3 N          62.9814   85.2691   10.2231 N.ar    1  UNL1       -0.1074
      4 C          62.4221   86.0327   11.3869 C.ar    1  UNL1        0.2075
      5 N          61.4925   87.0804   10.8501 N.ar    1  UNL1       -0.1253
      6 C          59.0901   89.5249    6.5271 C.ar    1  UNL1       -0.0207
      7 C          59.0581   88.0311    6.3950 C.ar    1  UNL1       -0.0026
      8 C          59.8539   87.1776    7.3376 C.ar    1  UNL1        0.0206
      9 C          60.6816   87.8179    8.4122 C.ar    1  UNL1        0.1045
     10 C          60.7136   89.3117    8.5443 C.ar    1  UNL1        0.0206
     11 C          59.9179   90.1652    7.6018 C.ar    1  UNL1       -0.0026
     12 C          58.2944   90.3785    5.5847 C.3     1  UNL1        0.0437
     13 C          58.7405   91.7783    5.2822 C.3     1  UNL1        0.0771
     14 C          62.9149   93.6235    0.1422 C.ar    1  UNL1        0.1721
     15 C          63.1495   92.7331    1.3263 C.ar    1  UNL1        0.0356
     16 C          62.0472   92.4944    2.3153 C.ar    1  UNL1       -0.0202
     17 C          60.7104   93.1461    2.1202 C.ar    1  UNL1       -0.0068
     18 C          60.4758   94.0366    0.9360 C.ar    1  UNL1        0.0368
     19 C          61.5781   94.2753   -0.0529 C.ar    1  UNL1        0.1721
     20 C          59.6081   92.9075    3.1091 C.3     1  UNL1        0.0990
     21 N          59.8427   92.0170    4.2931 N.3     1  UNL1       -0.2683
     22 C          61.1796   91.3653    4.4883 C.3     1  UNL1        0.0771
     23 C          62.2818   91.6039    3.4993 C.3     1  UNL1        0.0435
     24 C          64.8080   95.1359   -0.7955 C.3     1  UNL1        0.2526
     25 O          64.0172   93.8623   -0.8468 O.3     1  UNL1       -0.4684
     26 O          61.3435   95.1658   -1.2370 O.3     1  UNL1       -0.4684
     27 C          61.0829   94.5656   -2.5868 C.3     1  UNL1        0.2526
     28 C          62.7371   85.7910   12.8334 C.ar    1  UNL1        0.0560
     29 C          62.2238   84.5585   13.5170 C.ar    1  UNL1        0.0444
     30 C          62.5388   84.3168   14.9634 C.ar    1  UNL1        0.1726
     31 C          63.3672   85.3076   15.7264 C.ar    1  UNL1        0.1736
     32 C          63.8806   86.5401   15.0428 C.ar    1  UNL1        0.0548
     33 C          63.5656   86.7818   13.5963 C.ar    1  UNL1        0.0568
     34 N          64.0790   88.0144   12.9127 N.am    1  UNL1       -0.2802
     35 C          63.9076   89.3571   13.5591 C.2     1  UNL1        0.2495
     36 O          63.2228   89.4672   14.8891 O.2     1  UNL1       -0.2698
     37 H          64.5284   87.9421   12.0397 H       1  UNL1        0.1552
     38 C          64.4209   90.5896   12.8756 C.ar    1  UNL1        0.0537
     39 C          63.8911   90.9747   11.5261 C.ar    1  UNL1        0.0045
     40 C          64.4045   92.2072   10.8426 C.ar    1  UNL1        0.0001
     41 C          65.4477   93.0547   11.5085 C.ar    1  UNL1        0.0001
     42 C          65.9775   92.6697   12.8580 C.ar    1  UNL1        0.0001
     43 C          65.4641   91.4371   13.5415 C.ar    1  UNL1        0.0045
     44 C          65.9611   94.2873   10.8250 C.ar    1  UNL1        0.0031
     45 C          65.8420   95.6227   11.4978 C.ar    1  UNL1        0.0207
     46 C          66.3553   96.8553   10.8143 C.ar    1  UNL1        0.0989
     47 N          66.9878   96.7525    9.4581 N.ar    1  UNL1       -0.2423
     48 C          67.1069   95.4172    8.7853 C.ar    1  UNL1        0.0989
     49 C          66.5936   94.1846    9.4688 C.ar    1  UNL1        0.0207
     50 O          62.0254   83.0842   15.6470 O.3     1  UNL1       -0.4684
     51 C          61.8039   81.8270   14.8594 C.3     1  UNL1        0.2526
     52 O          63.6823   85.0659   17.1728 O.3     1  UNL1       -0.4683
     53 C          63.1404   85.9897   18.2229 C.3     1  UNL1        0.2526
@<TRIPOS>BOND
     1    24    25    1
     2    25    14    1
     3    14    15   ar
     4    15    16   ar
     5    16    17   ar
     6    17    18   ar
     7    18    19   ar
     8    19    26    1
     9    26    27    1
    10    17    20    1
    11    20    21    1
    12    21    13    1
    13    13    12    1
    14    12     6    1
    15     6     7   ar
    16     7     8   ar
    17     8     9   ar
    18     9     1    1
    19     1     2   ar
    20     2     3   ar
    21     3     4   ar
    22     4    28    1
    23    28    29   ar
    24    29    30   ar
    25    30    50    1
    26    50    51    1
    27    30    31   ar
    28    31    52    1
    29    52    53    1
    30    31    32   ar
    31    32    33   ar
    32    33    34    1
    33    34    35   am
    34    35    36    2
    35    35    38    1
    36    38    39   ar
    37    39    40   ar
    38    40    41   ar
    39    41    44    1
    40    44    45   ar
    41    45    46   ar
    42    46    47   ar
    43    47    48   ar
    44    48    49   ar
    45    41    42   ar
    46    42    43   ar
    47     4     5   ar
    48     9    10   ar
    49    10    11   ar
    50    21    22    1
    51    22    23    1
    52    19    14   ar
    53    11     6   ar
    54    23    16    1
    55     5     1   ar
    56    33    28   ar
    57    43    38   ar
    58    49    44   ar
    59    34    37    1
@<TRIPOS>MOLECULE
*****
 53 59 0 0 0
SMALL
GASTEIGER

@<TRIPOS>ATOM
      1 N          59.7872   93.4256    0.6021 N.ar    1  UNL1       -0.1285
      2 N          60.8938   93.7351   -0.3619 N.ar    1  UNL1       -0.0406
      3 N          60.2867   94.3772   -1.5740 N.ar    1  UNL1       -0.1074
      4 C          58.8047   94.4644   -1.3590 C.ar    1  UNL1        0.2075
      5 N          58.4960   93.8763   -0.0141 N.ar    1  UNL1       -0.1253
      6 C          60.2581   91.4854    4.6350 C.ar    1  UNL1       -0.0207
      7 C          61.4572   91.6936    3.7582 C.ar    1  UNL1       -0.0026
      8 C          61.3002   92.3404    2.4139 C.ar    1  UNL1        0.0206
      9 C          59.9441   92.7789    1.9464 C.ar    1  UNL1        0.1045
     10 C          58.7449   92.5707    2.8231 C.ar    1  UNL1        0.0206
     11 C          58.9019   91.9240    4.1674 C.ar    1  UNL1       -0.0026
     12 C          60.4150   90.8387    5.9792 C.3     1  UNL1        0.0437
     13 C          59.4978   89.7240    6.3869 C.3     1  UNL1        0.0771
     14 C          62.1449   86.2093   11.6681 C.ar    1  UNL1        0.1721
     15 C          61.2447   85.7726   10.5505 C.ar    1  UNL1        0.0356
     16 C          60.8080   86.7605    9.5095 C.ar    1  UNL1       -0.0202
     17 C          61.2714   88.1850    9.5863 C.ar    1  UNL1       -0.0068
     18 C          62.1716   88.6217   10.7039 C.ar    1  UNL1        0.0368
     19 C          62.6083   87.6338   11.7448 C.ar    1  UNL1        0.1721
     20 C          60.8347   89.1729    8.5454 C.3     1  UNL1        0.0990
     21 N          59.9346   88.7361    7.4279 N.3     1  UNL1       -0.2683
     22 C          59.4712   87.3116    7.3511 C.3     1  UNL1        0.0771
     23 C          59.9079   86.3237    8.3920 C.3     1  UNL1        0.0435
     24 C          62.9190   83.8145   12.3130 C.3     1  UNL1        0.2526
     25 O          62.5816   85.2214   12.7090 O.3     1  UNL1       -0.4684
     26 O          63.5084   88.0705   12.8624 O.3     1  UNL1       -0.4684
     27 C          63.6326   89.5268   13.2000 C.3     1  UNL1        0.2526
     28 C          57.8066   95.0389   -2.3202 C.ar    1  UNL1        0.0560
     29 C          56.3409   94.9721   -2.0088 C.ar    1  UNL1        0.0444
     30 C          55.3429   95.5465   -2.9699 C.ar    1  UNL1        0.1726
     31 C          55.8107   96.1879   -4.2427 C.ar    1  UNL1        0.1736
     32 C          57.2764   96.2548   -4.5542 C.ar    1  UNL1        0.0548
     33 C          58.2744   95.6803   -3.5930 C.ar    1  UNL1        0.0568
     34 N          59.7402   95.7472   -3.9045 N.am    1  UNL1       -0.2802
     35 C          60.2426   95.3051   -5.2470 C.2     1  UNL1        0.2495
     36 O          59.2792   94.7962   -6.2780 O.2     1  UNL1       -0.2698
     37 H          60.3725   96.0812   -3.2279 H       1  UNL1        0.1552
     38 C          61.7083   95.3720   -5.5586 C.ar    1  UNL1        0.0537
     39 C          62.6464   94.3578   -4.9741 C.ar    1  UNL1        0.0045
     40 C          64.1121   94.4247   -5.2857 C.ar    1  UNL1        0.0001
     41 C          64.6398   95.5057   -6.1818 C.ar    1  UNL1        0.0001
     42 C          63.7017   96.5199   -6.7663 C.ar    1  UNL1        0.0001
     43 C          62.2360   96.4530   -6.4547 C.ar    1  UNL1        0.0045
     44 C          66.1056   95.5726   -6.4934 C.ar    1  UNL1        0.0031
     45 C          66.7791   94.4229   -7.1823 C.ar    1  UNL1        0.0207
     46 C          68.2448   94.4898   -7.4940 C.ar    1  UNL1        0.0989
     47 N          69.0371   95.7063   -7.1166 N.ar    1  UNL1       -0.2423
     48 C          68.3636   96.8560   -6.4277 C.ar    1  UNL1        0.0989
     49 C          66.8978   96.7892   -6.1161 C.ar    1  UNL1        0.0207
     50 O          53.8772   95.4797   -2.6584 O.3     1  UNL1       -0.4684
     51 C          53.3481   96.1058   -1.4022 C.3     1  UNL1        0.2526
     52 O          54.8126   96.7624   -5.2039 O.3     1  UNL1       -0.4683
     53 C          54.1875   95.8865   -6.2487 C.3     1  UNL1        0.2526
@<TRIPOS>BOND
     1    24    25    1
     2    25    14    1
     3    14    15   ar
     4    15    16   ar
     5    16    17   ar
     6    17    18   ar
     7    18    19   ar
     8    19    26    1
     9    26    27    1
    10    17    20    1
    11    20    21    1
    12    21    13    1
    13    13    12    1
    14    12     6    1
    15     6     7   ar
    16     7     8   ar
    17     8     9   ar
    18     9     1    1
    19     1     2   ar
    20     2     3   ar
    21     3     4   ar
    22     4    28    1
    23    28    29   ar
    24    29    30   ar
    25    30    50    1
    26    50    51    1
    27    30    31   ar
    28    31    52    1
    29    52    53    1
    30    31    32   ar
    31    32    33   ar
    32    33    34    1
    33    34    35   am
    34    35    36    2
    35    35    38    1
    36    38    39   ar
    37    39    40   ar
    38    40    41   ar
    39    41    44    1
    40    44    45   ar
    41    45    46   ar
    42    46    47   ar
    43    47    48   ar
    44    48    49   ar
    45    41    42   ar
    46    42    43   ar
    47     4     5   ar
    48     9    10   ar
    49    10    11   ar
    50    21    22    1
    51    22    23    1
    52    19    14   ar
    53    11     6   ar
    54    23    16    1
    55     5     1   ar
    56    33    28   ar
    57    43    38   ar
    58    49    44   ar
    59    34    37    1
