@<TRIPOS>MOLECULE
*****
 26 29 0 0 0
SMALL
GASTEIGER

@<TRIPOS>ATOM
      1 C          63.0373   90.4617   13.7199 C.3     1  UNL1        0.2068
      2 O          63.7460   88.0538   13.0493 O.2     1  UNL1       -0.2739
      3 C          62.9086   89.2752   12.8112 C.2     1  UNL1        0.2419
      4 N          61.9423   89.3102   11.6644 N.am    1  UNL1       -0.2580
      5 C          61.0434   90.4555   11.3035 C.3     1  UNL1        0.1030
      6 C          60.2509   90.0591   10.0932 C.3     1  UNL1        0.0518
      7 C          60.6601   88.6689    9.7060 C.ar    1  UNL1        0.0207
      8 C          60.2158   87.7648    8.5947 C.ar    1  UNL1        0.1374
      9 F          59.1704   88.2276    7.6237 F       1  UNL1       -0.2045
     10 C          60.8169   86.3977    8.4544 C.ar    1  UNL1        0.0294
     11 C          61.8623   85.9348    9.4255 C.ar    1  UNL1        0.0036
     12 C          62.3066   86.8390   10.5368 C.ar    1  UNL1        0.0147
     13 C          61.7054   88.2061   10.6771 C.ar    1  UNL1        0.0520
     14 C          64.2958   91.2779   13.7139 C.2     1  UNL1        0.3580
     15 N          64.8789   91.7476   12.4142 N.2     1  UNL1       -0.0039
     16 C          66.1374   92.5638   12.4082 C.2     1  UNL1        0.3159
     17 C          66.8127   92.9103   13.7019 C.3     1  UNL1        0.2333
     18 C          66.2295   92.4407   15.0017 C.2     1  UNL1        0.3644
     19 O          66.9049   92.7873   16.2955 O.2     1  UNL1       -0.2422
     20 N          64.9711   91.6245   15.0077 N.am    1  UNL1        0.0289
     21 N          66.7206   93.0334   11.1084 N.pl3   1  UNL1       -0.1888
     22 C          66.2760   94.3371   10.5145 C.3     1  UNL1        0.2343
     23 C          66.8592   94.8068    9.2148 C.3     1  UNL1        0.1929
     24 O          67.8868   93.9727    8.5089 O.3     1  UNL1       -0.3449
     25 C          68.3314   92.6689    9.1028 C.3     1  UNL1        0.1929
     26 C          67.7482   92.1993   10.4026 C.3     1  UNL1        0.2343
@<TRIPOS>BOND
     1     2     3    2
     2     3     1    1
     3     1    14    1
     4    14    15    1
     5    15    16    2
     6    16    21    1
     7    21    22    1
     8    22    23    1
     9    23    24    1
    10    24    25    1
    11    25    26    1
    12    16    17    1
    13    17    18    1
    14    18    19    2
    15    18    20    1
    16     3     4   am
    17     4     5    1
    18     5     6    1
    19     6     7    1
    20     7     8   ar
    21     8     9    1
    22     8    10   ar
    23    10    11   ar
    24    11    12   ar
    25    12    13   ar
    26    20    14    2
    27    13     4    1
    28    26    21    1
    29    13     7   ar
@<TRIPOS>MOLECULE
*****
 26 29 0 0 0
SMALL
GASTEIGER

@<TRIPOS>ATOM
      1 C          61.6566   89.2266   11.1729 C.3     1  UNL1        0.2068
      2 O          63.0512   91.0740    9.9930 O.2     1  UNL1       -0.2739
      3 C          62.7290   90.2744   11.2204 C.2     1  UNL1        0.2419
      4 N          63.4792   90.5224   12.4955 N.am    1  UNL1       -0.2580
      5 C          63.2688   89.8053   13.7960 C.3     1  UNL1        0.1030
      6 C          64.2311   90.3709   14.7981 C.3     1  UNL1        0.0518
      7 C          65.0363   91.4374   14.1169 C.ar    1  UNL1        0.0207
      8 C          66.1325   92.3354   14.6085 C.ar    1  UNL1        0.1374
      9 F          66.5972   92.2417   16.0317 F       1  UNL1       -0.2045
     10 C          66.7641   93.3271   13.6771 C.ar    1  UNL1        0.0294
     11 C          66.2994   93.4208   12.2539 C.ar    1  UNL1        0.0036
     12 C          65.2032   92.5228   11.7623 C.ar    1  UNL1        0.0147
     13 C          64.5716   91.5311   12.6937 C.ar    1  UNL1        0.0520
     14 C          62.0150   87.7991   10.8834 C.2     1  UNL1        0.3580
     15 N          62.3537   86.8677   12.0094 N.2     1  UNL1       -0.0039
     16 C          62.7121   85.4402   11.7199 C.2     1  UNL1        0.3159
     17 C          62.7318   84.9442   10.3044 C.3     1  UNL1        0.2333
     18 C          62.3930   85.8756    9.1785 C.2     1  UNL1        0.3644
     19 O          62.4127   85.3795    7.7629 O.2     1  UNL1       -0.2422
     20 N          62.0346   87.3031    9.4680 N.am    1  UNL1        0.0289
     21 N          63.0508   84.5088   12.8458 N.pl3   1  UNL1       -0.1888
     22 C          62.7111   83.0516   12.7416 C.3     1  UNL1        0.2343
     23 C          63.0498   82.1202   13.8676 C.3     1  UNL1        0.1929
     24 O          63.7283   82.6461   15.0977 O.3     1  UNL1       -0.3449
     25 C          64.0680   84.1034   15.2018 C.3     1  UNL1        0.1929
     26 C          63.7293   85.0348   14.0759 C.3     1  UNL1        0.2343
@<TRIPOS>BOND
     1     2     3    2
     2     3     1    1
     3     1    14    1
     4    14    15    1
     5    15    16    2
     6    16    21    1
     7    21    22    1
     8    22    23    1
     9    23    24    1
    10    24    25    1
    11    25    26    1
    12    16    17    1
    13    17    18    1
    14    18    19    2
    15    18    20    1
    16     3     4   am
    17     4     5    1
    18     5     6    1
    19     6     7    1
    20     7     8   ar
    21     8     9    1
    22     8    10   ar
    23    10    11   ar
    24    11    12   ar
    25    12    13   ar
    26    20    14    2
    27    13     4    1
    28    26    21    1
    29    13     7   ar
@<TRIPOS>MOLECULE
*****
 26 29 0 0 0
SMALL
GASTEIGER

@<TRIPOS>ATOM
      1 C          61.9836   88.9447   11.4055 C.3     1  UNL1        0.2068
      2 O          63.0331   89.1031   13.7768 O.2     1  UNL1       -0.2739
      3 C          62.9124   89.6169   12.3728 C.2     1  UNL1        0.2419
      4 N          63.7204   90.8028   11.9360 N.am    1  UNL1       -0.2580
      5 C          63.7050   91.4258   10.5716 C.3     1  UNL1        0.1030
      6 C          64.6607   92.5819   10.5793 C.3     1  UNL1        0.0518
      7 C          65.2667   92.6734   11.9484 C.ar    1  UNL1        0.0207
      8 C          66.2726   93.6159   12.5399 C.ar    1  UNL1        0.1374
      9 F          66.8537   94.7155   11.7013 F       1  UNL1       -0.2045
     10 C          66.6973   93.4587   13.9698 C.ar    1  UNL1        0.0294
     11 C          66.1161   92.3591   14.8083 C.ar    1  UNL1        0.0036
     12 C          65.1102   91.4167   14.2169 C.ar    1  UNL1        0.0147
     13 C          64.6855   91.5738   12.7869 C.ar    1  UNL1        0.0520
     14 C          62.2250   87.5208   11.0000 C.2     1  UNL1        0.3580
     15 N          62.4620   86.4728   12.0466 N.2     1  UNL1       -0.0039
     16 C          62.7035   85.0490   11.6411 C.2     1  UNL1        0.3159
     17 C          62.7080   84.6733   10.1890 C.3     1  UNL1        0.2333
     18 C          62.4710   85.7213    9.1423 C.2     1  UNL1        0.3644
     19 O          62.4755   85.3455    7.6901 O.2     1  UNL1       -0.2422
     20 N          62.2296   87.1451    9.5478 N.am    1  UNL1        0.0289
     21 N          62.9404   84.0010   12.6878 N.pl3   1  UNL1       -0.1888
     22 C          62.7166   82.5535   12.3640 C.3     1  UNL1        0.2343
     23 C          62.9535   81.5055   13.4106 C.3     1  UNL1        0.1929
     24 O          63.4143   81.9049   14.7811 O.3     1  UNL1       -0.3449
     25 C          63.6382   83.3524   15.1049 C.3     1  UNL1        0.1929
     26 C          63.4012   84.4004   14.0583 C.3     1  UNL1        0.2343
@<TRIPOS>BOND
     1     2     3    2
     2     3     1    1
     3     1    14    1
     4    14    15    1
     5    15    16    2
     6    16    21    1
     7    21    22    1
     8    22    23    1
     9    23    24    1
    10    24    25    1
    11    25    26    1
    12    16    17    1
    13    17    18    1
    14    18    19    2
    15    18    20    1
    16     3     4   am
    17     4     5    1
    18     5     6    1
    19     6     7    1
    20     7     8   ar
    21     8     9    1
    22     8    10   ar
    23    10    11   ar
    24    11    12   ar
    25    12    13   ar
    26    20    14    2
    27    13     4    1
    28    26    21    1
    29    13     7   ar
@<TRIPOS>MOLECULE
*****
 26 29 0 0 0
SMALL
GASTEIGER

@<TRIPOS>ATOM
      1 C          64.3838   86.4859   14.3345 C.3     1  UNL1        0.2068
      2 O          62.6919   85.0947   15.7316 O.2     1  UNL1       -0.2739
      3 C          63.5790   85.2352   14.5304 C.2     1  UNL1        0.2419
      4 N          63.6616   84.1251   13.5249 N.am    1  UNL1       -0.2580
      5 C          64.5004   84.1224   12.2814 C.3     1  UNL1        0.1030
      6 C          64.2770   82.8184   11.5745 C.3     1  UNL1        0.0518
      7 C          63.3002   82.0152   12.3811 C.ar    1  UNL1        0.0207
      8 C          62.7079   80.6528   12.1737 C.ar    1  UNL1        0.1374
      9 F          63.0883   79.8453   10.9682 F       1  UNL1       -0.2045
     10 C          61.7353   80.0980   13.1717 C.ar    1  UNL1        0.0294
     11 C          61.3549   80.9056   14.3772 C.ar    1  UNL1        0.0036
     12 C          61.9472   82.2680   14.5846 C.ar    1  UNL1        0.0147
     13 C          62.9198   82.8228   13.5866 C.ar    1  UNL1        0.0520
     14 C          63.8325   87.6110   13.5097 C.2     1  UNL1        0.3580
     15 N          62.9663   87.3152   12.3213 N.2     1  UNL1       -0.0039
     16 C          62.4150   88.4403   11.4965 C.2     1  UNL1        0.3159
     17 C          62.7300   89.8610   11.8601 C.3     1  UNL1        0.2333
     18 C          63.5962   90.1568   13.0485 C.2     1  UNL1        0.3644
     19 O          63.9111   91.5776   13.4121 O.2     1  UNL1       -0.2422
     20 N          64.1475   89.0317   13.8733 N.am    1  UNL1        0.0289
     21 N          61.5487   88.1446   10.3082 N.pl3   1  UNL1       -0.1888
     22 C          60.8638   89.2643    9.5821 C.3     1  UNL1        0.2343
     23 C          59.9976   88.9686    8.3938 C.3     1  UNL1        0.1929
     24 O          59.8163   87.5532    7.9315 O.3     1  UNL1       -0.3449
     25 C          60.5013   86.4334    8.6576 C.3     1  UNL1        0.1929
     26 C          61.3675   86.7291    9.8459 C.3     1  UNL1        0.2343
@<TRIPOS>BOND
     1     2     3    2
     2     3     1    1
     3     1    14    1
     4    14    15    1
     5    15    16    2
     6    16    21    1
     7    21    22    1
     8    22    23    1
     9    23    24    1
    10    24    25    1
    11    25    26    1
    12    16    17    1
    13    17    18    1
    14    18    19    2
    15    18    20    1
    16     3     4   am
    17     4     5    1
    18     5     6    1
    19     6     7    1
    20     7     8   ar
    21     8     9    1
    22     8    10   ar
    23    10    11   ar
    24    11    12   ar
    25    12    13   ar
    26    20    14    2
    27    13     4    1
    28    26    21    1
    29    13     7   ar
@<TRIPOS>MOLECULE
*****
 26 29 0 0 0
SMALL
GASTEIGER

@<TRIPOS>ATOM
      1 C          63.6078   90.1131   13.0580 C.3     1  UNL1        0.2068
      2 O          64.6987   88.5883   14.8566 O.2     1  UNL1       -0.2739
      3 C          63.8972   88.7439   13.5984 C.2     1  UNL1        0.2419
      4 N          63.3851   87.5306   12.8803 N.am    1  UNL1       -0.2580
      5 C          62.5746   87.5296   11.6181 C.3     1  UNL1        0.1030
      6 C          62.2823   86.1036   11.2562 C.3     1  UNL1        0.0518
      7 C          62.9121   85.2233   12.2946 C.ar    1  UNL1        0.0207
      8 C          62.9529   83.7326   12.4558 C.ar    1  UNL1        0.1374
      9 F          62.2713   82.8506   11.4520 F       1  UNL1       -0.2045
     10 C          63.6754   83.1238   13.6208 C.ar    1  UNL1        0.0294
     11 C          64.3571   84.0057   14.6246 C.ar    1  UNL1        0.0036
     12 C          64.3162   85.4964   14.4634 C.ar    1  UNL1        0.0147
     13 C          63.5937   86.1052   13.2984 C.ar    1  UNL1        0.0520
     14 C          64.5667   91.2381   13.3130 C.2     1  UNL1        0.3580
     15 N          65.0452   92.0884   12.1737 N.2     1  UNL1       -0.0039
     16 C          66.0041   93.2134   12.4286 C.2     1  UNL1        0.3159
     17 C          66.4843   93.4880   13.8228 C.3     1  UNL1        0.2333
     18 C          66.0058   92.6377   14.9621 C.2     1  UNL1        0.3644
     19 O          66.4861   92.9124   16.3564 O.2     1  UNL1       -0.2422
     20 N          65.0469   91.5127   14.7072 N.am    1  UNL1        0.0289
     21 N          66.4826   94.0637   11.2893 N.pl3   1  UNL1       -0.1888
     22 C          67.1752   93.4296   10.1196 C.3     1  UNL1        0.2343
     23 C          67.6537   94.2799    8.9803 C.3     1  UNL1        0.1929
     24 O          67.4397   95.7643    9.0108 O.3     1  UNL1       -0.3449
     25 C          66.7471   96.3983   10.1806 C.3     1  UNL1        0.1929
     26 C          66.2686   95.5480   11.3199 C.3     1  UNL1        0.2343
@<TRIPOS>BOND
     1     2     3    2
     2     3     1    1
     3     1    14    1
     4    14    15    1
     5    15    16    2
     6    16    21    1
     7    21    22    1
     8    22    23    1
     9    23    24    1
    10    24    25    1
    11    25    26    1
    12    16    17    1
    13    17    18    1
    14    18    19    2
    15    18    20    1
    16     3     4   am
    17     4     5    1
    18     5     6    1
    19     6     7    1
    20     7     8   ar
    21     8     9    1
    22     8    10   ar
    23    10    11   ar
    24    11    12   ar
    25    12    13   ar
    26    20    14    2
    27    13     4    1
    28    26    21    1
    29    13     7   ar
@<TRIPOS>MOLECULE
*****
 26 29 0 0 0
SMALL
GASTEIGER

@<TRIPOS>ATOM
      1 C          63.4058   90.5730   13.6351 C.3     1  UNL1        0.2068
      2 O          62.3667   89.3984   11.5637 O.2     1  UNL1       -0.2739
      3 C          63.1046   89.3200   12.8673 C.2     1  UNL1        0.2419
      4 N          63.5413   87.9888   13.4032 N.am    1  UNL1       -0.2580
      5 C          64.2833   87.7550   14.6856 C.3     1  UNL1        0.1030
      6 C          64.5132   86.2794   14.8257 C.3     1  UNL1        0.0518
      7 C          63.9133   85.6012   13.6298 C.ar    1  UNL1        0.0207
      8 C          63.8364   84.1581   13.2278 C.ar    1  UNL1        0.1374
      9 F          64.4371   83.1016   14.1069 F       1  UNL1       -0.2045
     10 C          63.1588   83.7716   11.9466 C.ar    1  UNL1        0.0294
     11 C          62.5581   84.8281   11.0674 C.ar    1  UNL1        0.0036
     12 C          62.6350   86.2712   11.4694 C.ar    1  UNL1        0.0147
     13 C          63.3126   86.6577   12.7506 C.ar    1  UNL1        0.0520
     14 C          64.7592   91.2109   13.5285 C.2     1  UNL1        0.3580
     15 N          65.1376   91.9644   12.2879 N.2     1  UNL1       -0.0039
     16 C          66.4910   92.6023   12.1813 C.2     1  UNL1        0.3159
     17 C          67.4660   92.4866   13.3153 C.3     1  UNL1        0.2333
     18 C          67.0876   91.7331   14.5559 C.2     1  UNL1        0.3644
     19 O          68.0627   91.6174   15.6899 O.2     1  UNL1       -0.2422
     20 N          65.7342   91.0952   14.6625 N.am    1  UNL1        0.0289
     21 N          66.8694   93.3558   10.9407 N.pl3   1  UNL1       -0.1888
     22 C          66.4079   94.7705   10.7524 C.3     1  UNL1        0.2343
     23 C          66.7863   95.5240    9.5119 C.3     1  UNL1        0.1929
     24 O          67.6262   94.8628    8.4596 O.3     1  UNL1       -0.3449
     25 C          68.0877   93.4479    8.6479 C.3     1  UNL1        0.1929
     26 C          67.7093   92.6944    9.8884 C.3     1  UNL1        0.2343
@<TRIPOS>BOND
     1     2     3    2
     2     3     1    1
     3     1    14    1
     4    14    15    1
     5    15    16    2
     6    16    21    1
     7    21    22    1
     8    22    23    1
     9    23    24    1
    10    24    25    1
    11    25    26    1
    12    16    17    1
    13    17    18    1
    14    18    19    2
    15    18    20    1
    16     3     4   am
    17     4     5    1
    18     5     6    1
    19     6     7    1
    20     7     8   ar
    21     8     9    1
    22     8    10   ar
    23    10    11   ar
    24    11    12   ar
    25    12    13   ar
    26    20    14    2
    27    13     4    1
    28    26    21    1
    29    13     7   ar
@<TRIPOS>MOLECULE
*****
 26 29 0 0 0
SMALL
GASTEIGER

@<TRIPOS>ATOM
      1 C          64.5009   86.3923   14.9696 C.3     1  UNL1        0.2068
      2 O          62.5300   85.0837   16.0434 O.2     1  UNL1       -0.2739
      3 C          63.5877   85.2023   14.9866 C.2     1  UNL1        0.2419
      4 N          63.7325   84.1310   13.9467 N.am    1  UNL1       -0.2580
      5 C          64.7381   84.1125   12.8339 C.3     1  UNL1        0.1030
      6 C          64.5241   82.8602   12.0365 C.3     1  UNL1        0.0518
      7 C          63.3862   82.1047   12.6565 C.ar    1  UNL1        0.0207
      8 C          62.7323   80.8030   12.2985 C.ar    1  UNL1        0.1374
      9 F          63.2216   80.0176   11.1179 F       1  UNL1       -0.2045
     10 C          61.5892   80.2868   13.1211 C.ar    1  UNL1        0.0294
     11 C          61.0999   81.0722   14.3017 C.ar    1  UNL1        0.0036
     12 C          61.7538   82.3739   14.6597 C.ar    1  UNL1        0.0147
     13 C          62.8969   82.8901   13.8370 C.ar    1  UNL1        0.0520
     14 C          64.1821   87.5699   14.0969 C.2     1  UNL1        0.3580
     15 N          64.8410   88.8930   14.3525 N.2     1  UNL1       -0.0039
     16 C          64.5222   90.0706   13.4798 C.2     1  UNL1        0.3159
     17 C          63.5445   89.9250   12.3515 C.3     1  UNL1        0.2333
     18 C          62.8856   88.6019   12.0960 C.2     1  UNL1        0.3644
     19 O          61.9079   88.4564   10.9677 O.2     1  UNL1       -0.2422
     20 N          63.2044   87.4243   12.9687 N.am    1  UNL1        0.0289
     21 N          65.1810   91.3937   13.7353 N.pl3   1  UNL1       -0.1888
     22 C          65.6256   91.7548   15.1216 C.3     1  UNL1        0.2343
     23 C          66.2845   93.0779   15.3772 C.3     1  UNL1        0.1929
     24 O          66.4988   94.0398   14.2464 O.3     1  UNL1       -0.3449
     25 C          66.0542   93.6787   12.8600 C.3     1  UNL1        0.1929
     26 C          65.3953   92.3556   12.6044 C.3     1  UNL1        0.2343
@<TRIPOS>BOND
     1     2     3    2
     2     3     1    1
     3     1    14    1
     4    14    15    1
     5    15    16    2
     6    16    21    1
     7    21    22    1
     8    22    23    1
     9    23    24    1
    10    24    25    1
    11    25    26    1
    12    16    17    1
    13    17    18    1
    14    18    19    2
    15    18    20    1
    16     3     4   am
    17     4     5    1
    18     5     6    1
    19     6     7    1
    20     7     8   ar
    21     8     9    1
    22     8    10   ar
    23    10    11   ar
    24    11    12   ar
    25    12    13   ar
    26    20    14    2
    27    13     4    1
    28    26    21    1
    29    13     7   ar
@<TRIPOS>MOLECULE
*****
 26 29 0 0 0
SMALL
GASTEIGER

@<TRIPOS>ATOM
      1 C          64.7655   86.7679   15.1148 C.3     1  UNL1        0.2068
      2 O          66.0214   84.8052   13.9657 O.2     1  UNL1       -0.2739
      3 C          64.7772   85.3620   14.5917 C.2     1  UNL1        0.2419
      4 N          63.5448   84.5132   14.6947 N.am    1  UNL1       -0.2580
      5 C          62.2338   84.9310   15.2919 C.3     1  UNL1        0.1030
      6 C          61.2858   83.7735   15.1848 C.3     1  UNL1        0.0518
      7 C          62.0109   82.6403   14.5213 C.ar    1  UNL1        0.0207
      8 C          61.5802   81.2513   14.1539 C.ar    1  UNL1        0.1374
      9 F          60.1841   80.7941   14.4568 F       1  UNL1       -0.2045
     10 C          62.5457   80.3194   13.4836 C.ar    1  UNL1        0.0294
     11 C          63.9419   80.7765   13.1807 C.ar    1  UNL1        0.0036
     12 C          64.3725   82.1656   13.5481 C.ar    1  UNL1        0.0147
     13 C          63.4071   83.0975   14.2184 C.ar    1  UNL1        0.0520
     14 C          64.2987   87.8909   14.2368 C.2     1  UNL1        0.3580
     15 N          63.4501   87.6001   13.0347 N.2     1  UNL1       -0.0039
     16 C          62.9833   88.7232   12.1567 C.2     1  UNL1        0.3159
     17 C          63.3652   90.1370   12.4809 C.3     1  UNL1        0.2333
     18 C          64.2138   90.4278   13.6831 C.2     1  UNL1        0.3644
     19 O          64.5957   91.8418   14.0073 O.2     1  UNL1       -0.2422
     20 N          64.6806   89.3048   14.5611 N.am    1  UNL1        0.0289
     21 N          62.1347   88.4323   10.9545 N.pl3   1  UNL1       -0.1888
     22 C          62.0437   87.0332   10.4214 C.3     1  UNL1        0.2343
     23 C          61.1950   86.7424    9.2193 C.3     1  UNL1        0.1929
     24 O          60.4374   87.8507    8.5502 O.3     1  UNL1       -0.3449
     25 C          60.5284   89.2499    9.0833 C.3     1  UNL1        0.1929
     26 C          61.3770   89.5407   10.2855 C.3     1  UNL1        0.2343
@<TRIPOS>BOND
     1     2     3    2
     2     3     1    1
     3     1    14    1
     4    14    15    1
     5    15    16    2
     6    16    21    1
     7    21    22    1
     8    22    23    1
     9    23    24    1
    10    24    25    1
    11    25    26    1
    12    16    17    1
    13    17    18    1
    14    18    19    2
    15    18    20    1
    16     3     4   am
    17     4     5    1
    18     5     6    1
    19     6     7    1
    20     7     8   ar
    21     8     9    1
    22     8    10   ar
    23    10    11   ar
    24    11    12   ar
    25    12    13   ar
    26    20    14    2
    27    13     4    1
    28    26    21    1
    29    13     7   ar
@<TRIPOS>MOLECULE
*****
 26 29 0 0 0
SMALL
GASTEIGER

@<TRIPOS>ATOM
      1 C          61.2848   87.2033    8.7567 C.3     1  UNL1        0.2068
      2 O          62.7381   85.2627    7.8227 O.2     1  UNL1       -0.2739
      3 C          62.1140   85.9744    8.9863 C.2     1  UNL1        0.2419
      4 N          62.3189   85.4574   10.3794 N.am    1  UNL1       -0.2580
      5 C          61.7605   86.0599   11.6344 C.3     1  UNL1        0.1030
      6 C          62.2147   85.2220   12.7927 C.3     1  UNL1        0.0518
      7 C          63.0538   84.1016   12.2534 C.ar    1  UNL1        0.0207
      8 C          63.7675   82.9677   12.9279 C.ar    1  UNL1        0.1374
      9 F          63.7032   82.8222   14.4194 F       1  UNL1       -0.2045
     10 C          64.5456   81.9794   12.1108 C.ar    1  UNL1        0.0294
     11 C          64.6100   82.1249   10.6193 C.ar    1  UNL1        0.0036
     12 C          63.8963   83.2588    9.9448 C.ar    1  UNL1        0.0147
     13 C          63.1182   84.2471   10.7619 C.ar    1  UNL1        0.0520
     14 C          61.1938   88.2562    9.8211 C.2     1  UNL1        0.3580
     15 N          62.3895   89.1028   10.1428 N.2     1  UNL1       -0.0039
     16 C          62.2985   90.1558   11.2072 C.2     1  UNL1        0.3159
     17 C          61.0117   90.3621   11.9499 C.3     1  UNL1        0.2333
     18 C          59.8160   89.5155   11.6281 C.2     1  UNL1        0.3644
     19 O          58.5291   89.7219   12.3709 O.2     1  UNL1       -0.2422
     20 N          59.9070   88.4626   10.5637 N.am    1  UNL1        0.0289
     21 N          63.4942   91.0023   11.5290 N.pl3   1  UNL1       -0.1888
     22 C          64.0619   91.0017   12.9174 C.3     1  UNL1        0.2343
     23 C          65.2576   91.8483   13.2392 C.3     1  UNL1        0.1929
     24 O          65.8857   92.6955   12.1725 O.3     1  UNL1       -0.3449
     25 C          65.3180   92.6960   10.7839 C.3     1  UNL1        0.1929
     26 C          64.1223   91.8495   10.4622 C.3     1  UNL1        0.2343
@<TRIPOS>BOND
     1     2     3    2
     2     3     1    1
     3     1    14    1
     4    14    15    1
     5    15    16    2
     6    16    21    1
     7    21    22    1
     8    22    23    1
     9    23    24    1
    10    24    25    1
    11    25    26    1
    12    16    17    1
    13    17    18    1
    14    18    19    2
    15    18    20    1
    16     3     4   am
    17     4     5    1
    18     5     6    1
    19     6     7    1
    20     7     8   ar
    21     8     9    1
    22     8    10   ar
    23    10    11   ar
    24    11    12   ar
    25    12    13   ar
    26    20    14    2
    27    13     4    1
    28    26    21    1
    29    13     7   ar
