@<TRIPOS>MOLECULE
*****
 32 35 0 0 0
SMALL
GASTEIGER

@<TRIPOS>ATOM
      1 C          62.8006   89.1216   11.6964 C.ar    1  UNL1        0.0338
      2 C          62.0448   89.7608   10.5693 C.ar    1  UNL1        0.1336
      3 O          62.0718   91.2508   10.3980 O.3     1  UNL1       -0.5055
      4 C          61.2620   88.9100    9.6136 C.ar    1  UNL1        0.0366
      5 C          61.2350   87.4201    9.7849 C.ar    1  UNL1        0.0031
      6 C          61.9908   86.7809   10.9119 C.ar    1  UNL1        0.0002
      7 C          61.9638   85.2910   11.0832 C.ar    1  UNL1        0.0000
      8 C          62.7196   84.6518   12.2102 C.ar    1  UNL1        0.0001
      9 C          63.5024   85.5026   13.1660 C.ar    1  UNL1        0.0000
     10 C          63.5294   86.9925   12.9947 C.ar    1  UNL1        0.0001
     11 C          62.7736   87.6316   11.8677 C.ar    1  UNL1        0.0029
     12 H          62.5607   91.7822   10.9950 H       1  UNL1        0.2922
     13 C          62.6926   83.1618   12.3816 C.ar    1  UNL1        0.0030
     14 C          62.4832   82.5671   13.7426 C.ar    1  UNL1        0.0002
     15 C          62.4562   81.0772   13.9140 C.ar    1  UNL1        0.0031
     16 C          62.6387   80.1819   12.7243 C.ar    1  UNL1        0.0366
     17 C          62.8481   80.7767   11.3632 C.ar    1  UNL1        0.1337
     18 O          63.0305   79.8815   10.1736 O.3     1  UNL1       -0.5055
     19 C          62.8751   82.2667   11.1919 C.ar    1  UNL1        0.0366
     20 H          63.0137   78.9508   10.2806 H       1  UNL1        0.2922
     21 C          65.1476   91.9981   13.0991 C.ar    1  UNL1        0.0644
     22 C          65.1490   91.6739   14.5636 C.ar    1  UNL1        0.0158
     23 C          64.3675   90.4990   15.0724 C.ar    1  UNL1        0.0013
     24 C          63.5847   89.6482   14.1167 C.ar    1  UNL1        0.0002
     25 C          63.5834   89.9724   12.6521 C.ar    1  UNL1        0.0042
     26 C          64.3648   91.1473   12.1433 C.ar    1  UNL1        0.0159
     27 N          65.9291   93.1730   12.5902 N.pl3   1  UNL1       -0.2187
     28 H          65.9894   93.9947   13.1291 H       1  UNL1        0.1734
     29 C          67.3080   93.0189    9.9303 C.3     1  UNL1        0.1996
     30 S          66.6185   93.0960   11.2603 S.O2    1  UNL1        0.0558
     31 O          67.7114   92.2724   11.8746 O.2     1  UNL1       -0.1544
     32 O          65.5256   93.9195   10.6460 O.2     1  UNL1       -0.1544
@<TRIPOS>BOND
     1    29    30    1
     2    30    31    2
     3    30    32    2
     4    30    27    1
     5    27    21    1
     6    21    22   ar
     7    22    23   ar
     8    23    24   ar
     9    24    25   ar
    10    25     1    1
    11     1     2   ar
    12     2     3    1
    13     2     4   ar
    14     4     5   ar
    15     5     6   ar
    16     6     7   ar
    17     7     8   ar
    18     8    13    1
    19    13    14   ar
    20    14    15   ar
    21    15    16   ar
    22    16    17   ar
    23    17    18    1
    24    17    19   ar
    25     8     9   ar
    26     9    10   ar
    27    10    11   ar
    28    25    26   ar
    29    26    21   ar
    30    11     1   ar
    31    11     6   ar
    32    19    13   ar
    33    27    28    1
    34     3    12    1
    35    18    20    1
@<TRIPOS>MOLECULE
*****
 32 35 0 0 0
SMALL
GASTEIGER

@<TRIPOS>ATOM
      1 C          63.0917   89.3868   12.1047 C.ar    1  UNL1        0.0338
      2 C          62.5205   90.1287   10.9328 C.ar    1  UNL1        0.1336
      3 O          62.5734   91.6274   10.8958 O.3     1  UNL1       -0.5055
      4 C          61.8963   89.3721    9.7980 C.ar    1  UNL1        0.0366
      5 C          61.8433   87.8735    9.8350 C.ar    1  UNL1        0.0031
      6 C          62.4146   87.1315   11.0069 C.ar    1  UNL1        0.0002
      7 C          62.3616   85.6329   11.0439 C.ar    1  UNL1        0.0000
      8 C          62.9328   84.8910   12.2157 C.ar    1  UNL1        0.0001
      9 C          63.5570   85.6477   13.3506 C.ar    1  UNL1        0.0000
     10 C          63.6100   87.1463   13.3136 C.ar    1  UNL1        0.0001
     11 C          63.0387   87.8882   12.1417 C.ar    1  UNL1        0.0029
     12 H          62.9633   92.1001   11.6046 H       1  UNL1        0.2922
     13 C          62.8799   83.3924   12.2528 C.ar    1  UNL1        0.0030
     14 C          63.2300   82.5991   11.0288 C.ar    1  UNL1        0.0002
     15 C          63.1770   81.1005   11.0658 C.ar    1  UNL1        0.0031
     16 C          62.7740   80.3951   12.3269 C.ar    1  UNL1        0.0366
     17 C          62.4239   81.1884   13.5508 C.ar    1  UNL1        0.1337
     18 O          62.0209   80.4832   14.8118 O.3     1  UNL1       -0.5055
     19 C          62.4768   82.6871   13.5138 C.ar    1  UNL1        0.0366
     20 H          61.9878   79.5470   14.8349 H       1  UNL1        0.2922
     21 C          65.4329   91.8913   14.1037 C.ar    1  UNL1        0.0644
     22 C          64.9642   91.6569   15.5092 C.ar    1  UNL1        0.0158
     23 C          63.8713   90.6657   15.7798 C.ar    1  UNL1        0.0013
     24 C          63.2471   89.9090   14.6450 C.ar    1  UNL1        0.0002
     25 C          63.7159   90.1435   13.2395 C.ar    1  UNL1        0.0042
     26 C          64.8087   91.1347   12.9689 C.ar    1  UNL1        0.0159
     27 N          66.5258   92.8825   13.8330 N.pl3   1  UNL1       -0.2187
     28 H          66.3722   93.6255   13.2057 H       1  UNL1        0.1734
     29 C          69.1796   92.6005   15.2034 C.3     1  UNL1        0.1996
     30 S          67.8527   92.7415   14.5182 S.O2    1  UNL1        0.0558
     31 O          68.3268   91.8425   13.4150 O.2     1  UNL1       -0.1544
     32 O          67.3786   93.6405   15.6214 O.2     1  UNL1       -0.1544
@<TRIPOS>BOND
     1    29    30    1
     2    30    31    2
     3    30    32    2
     4    30    27    1
     5    27    21    1
     6    21    22   ar
     7    22    23   ar
     8    23    24   ar
     9    24    25   ar
    10    25     1    1
    11     1     2   ar
    12     2     3    1
    13     2     4   ar
    14     4     5   ar
    15     5     6   ar
    16     6     7   ar
    17     7     8   ar
    18     8    13    1
    19    13    14   ar
    20    14    15   ar
    21    15    16   ar
    22    16    17   ar
    23    17    18    1
    24    17    19   ar
    25     8     9   ar
    26     9    10   ar
    27    10    11   ar
    28    25    26   ar
    29    26    21   ar
    30    11     1   ar
    31    11     6   ar
    32    19    13   ar
    33    27    28    1
    34     3    12    1
    35    18    20    1
@<TRIPOS>MOLECULE
*****
 32 35 0 0 0
SMALL
GASTEIGER

@<TRIPOS>ATOM
      1 C          63.7259   89.1939   15.0658 C.ar    1  UNL1        0.0338
      2 C          63.4844   89.7391   16.4422 C.ar    1  UNL1        0.1336
      3 O          63.6465   91.2067   16.7067 O.3     1  UNL1       -0.5055
      4 C          63.0807   88.8167   17.5541 C.ar    1  UNL1        0.0366
      5 C          62.9186   87.3492   17.2896 C.ar    1  UNL1        0.0031
      6 C          63.1601   86.8039   15.9132 C.ar    1  UNL1        0.0002
      7 C          62.9979   85.3364   15.6487 C.ar    1  UNL1        0.0000
      8 C          63.2394   84.7912   14.2723 C.ar    1  UNL1        0.0001
      9 C          63.6431   85.7136   13.1604 C.ar    1  UNL1        0.0000
     10 C          63.8052   87.1811   13.4249 C.ar    1  UNL1        0.0001
     11 C          63.5637   87.7263   14.8013 C.ar    1  UNL1        0.0029
     12 H          63.8987   91.7829   16.0122 H       1  UNL1        0.2922
     13 C          63.0773   83.3236   14.0078 C.ar    1  UNL1        0.0030
     14 C          64.2063   82.5408   13.4057 C.ar    1  UNL1        0.0002
     15 C          64.0443   81.0733   13.1412 C.ar    1  UNL1        0.0031
     16 C          62.7530   80.3885   13.4787 C.ar    1  UNL1        0.0366
     17 C          61.6240   81.1712   14.0808 C.ar    1  UNL1        0.1337
     18 O          60.3328   80.4865   14.4183 O.3     1  UNL1       -0.5055
     19 C          61.7861   82.6388   14.3453 C.ar    1  UNL1        0.0366
     20 H          60.2316   79.5697   14.2531 H       1  UNL1        0.2922
     21 C          65.8082   91.8222   12.9431 C.ar    1  UNL1        0.0644
     22 C          64.9368   91.9610   11.7301 C.ar    1  UNL1        0.0158
     23 C          63.6617   91.1774   11.6290 C.ar    1  UNL1        0.0013
     24 C          63.2581   90.2550   12.7409 C.ar    1  UNL1        0.0002
     25 C          64.1295   90.1163   13.9539 C.ar    1  UNL1        0.0042
     26 C          65.4045   90.8999   14.0550 C.ar    1  UNL1        0.0159
     27 N          67.0832   92.6059   13.0443 N.pl3   1  UNL1       -0.2187
     28 H          67.6265   92.7682   12.2394 H       1  UNL1        0.1734
     29 C          67.9780   93.6784   15.6993 C.3     1  UNL1        0.1996
     30 S          67.5306   93.1422   14.3718 S.O2    1  UNL1        0.0558
     31 O          66.2706   93.9501   14.4700 O.2     1  UNL1       -0.1544
     32 O          68.7906   92.3342   14.2735 O.2     1  UNL1       -0.1544
@<TRIPOS>BOND
     1    29    30    1
     2    30    31    2
     3    30    32    2
     4    30    27    1
     5    27    21    1
     6    21    22   ar
     7    22    23   ar
     8    23    24   ar
     9    24    25   ar
    10    25     1    1
    11     1     2   ar
    12     2     3    1
    13     2     4   ar
    14     4     5   ar
    15     5     6   ar
    16     6     7   ar
    17     7     8   ar
    18     8    13    1
    19    13    14   ar
    20    14    15   ar
    21    15    16   ar
    22    16    17   ar
    23    17    18    1
    24    17    19   ar
    25     8     9   ar
    26     9    10   ar
    27    10    11   ar
    28    25    26   ar
    29    26    21   ar
    30    11     1   ar
    31    11     6   ar
    32    19    13   ar
    33    27    28    1
    34     3    12    1
    35    18    20    1
@<TRIPOS>MOLECULE
*****
 32 35 0 0 0
SMALL
GASTEIGER

@<TRIPOS>ATOM
      1 C          62.2611   86.6972   10.8995 C.ar    1  UNL1        0.0338
      2 C          61.3462   87.1191    9.7883 C.ar    1  UNL1        0.1336
      3 O          60.7837   86.0932    8.8495 O.3     1  UNL1       -0.5055
      4 C          60.9937   88.5669    9.6159 C.ar    1  UNL1        0.0366
      5 C          61.5562   89.5927   10.5546 C.ar    1  UNL1        0.0031
      6 C          62.4712   89.1708   11.6659 C.ar    1  UNL1        0.0002
      7 C          63.0337   90.1966   12.6046 C.ar    1  UNL1        0.0000
      8 C          63.9486   89.7747   13.7158 C.ar    1  UNL1        0.0001
      9 C          64.3011   88.3269   13.8882 C.ar    1  UNL1        0.0000
     10 C          63.7386   87.3011   12.9495 C.ar    1  UNL1        0.0001
     11 C          62.8237   87.7230   11.8383 C.ar    1  UNL1        0.0029
     12 H          61.0038   85.1889    8.9573 H       1  UNL1        0.2922
     13 C          64.5111   90.8005   14.6546 C.ar    1  UNL1        0.0030
     14 C          63.8740   91.0201   15.9947 C.ar    1  UNL1        0.0002
     15 C          64.4365   92.0459   16.9335 C.ar    1  UNL1        0.0031
     16 C          65.6361   92.8522   16.5322 C.ar    1  UNL1        0.0366
     17 C          66.2732   92.6325   15.1921 C.ar    1  UNL1        0.1337
     18 O          67.4728   93.4387   14.7907 O.3     1  UNL1       -0.5055
     19 C          65.7107   91.6067   14.2533 C.ar    1  UNL1        0.0366
     20 H          67.8242   94.0795   15.3772 H       1  UNL1        0.2922
     21 C          62.6996   83.1154   12.5513 C.ar    1  UNL1        0.0644
     22 C          63.3186   82.3539   11.4169 C.ar    1  UNL1        0.0158
     23 C          63.5851   83.0401   10.1099 C.ar    1  UNL1        0.0013
     24 C          63.2326   84.4879    9.9375 C.ar    1  UNL1        0.0002
     25 C          62.6136   85.2494   11.0720 C.ar    1  UNL1        0.0042
     26 C          62.3471   84.5631   12.3789 C.ar    1  UNL1        0.0159
     27 N          62.4331   82.4291   13.8583 N.pl3   1  UNL1       -0.2187
     28 H          62.3520   82.9582   14.6846 H       1  UNL1        0.1734
     29 C          62.1472   79.4443   13.9543 C.3     1  UNL1        0.1996
     30 S          62.2902   80.9367   13.9063 S.O2    1  UNL1        0.0558
     31 O          60.8190   81.0692   13.6454 O.2     1  UNL1       -0.1544
     32 O          63.7613   80.8042   14.1672 O.2     1  UNL1       -0.1544
@<TRIPOS>BOND
     1    29    30    1
     2    30    31    2
     3    30    32    2
     4    30    27    1
     5    27    21    1
     6    21    22   ar
     7    22    23   ar
     8    23    24   ar
     9    24    25   ar
    10    25     1    1
    11     1     2   ar
    12     2     3    1
    13     2     4   ar
    14     4     5   ar
    15     5     6   ar
    16     6     7   ar
    17     7     8   ar
    18     8    13    1
    19    13    14   ar
    20    14    15   ar
    21    15    16   ar
    22    16    17   ar
    23    17    18    1
    24    17    19   ar
    25     8     9   ar
    26     9    10   ar
    27    10    11   ar
    28    25    26   ar
    29    26    21   ar
    30    11     1   ar
    31    11     6   ar
    32    19    13   ar
    33    27    28    1
    34     3    12    1
    35    18    20    1
@<TRIPOS>MOLECULE
*****
 32 35 0 0 0
SMALL
GASTEIGER

@<TRIPOS>ATOM
      1 C          63.9097   89.7106   13.6875 C.ar    1  UNL1        0.0338
      2 C          64.8919   90.8427   13.7463 C.ar    1  UNL1        0.1336
      3 O          65.7432   91.0345   14.9664 O.3     1  UNL1       -0.5055
      4 C          65.0229   91.7831   12.5850 C.ar    1  UNL1        0.0366
      5 C          64.1717   91.5913   11.3650 C.ar    1  UNL1        0.0031
      6 C          63.1894   90.4591   11.3061 C.ar    1  UNL1        0.0002
      7 C          62.3382   90.2673   10.0861 C.ar    1  UNL1        0.0000
      8 C          61.3560   89.1352   10.0273 C.ar    1  UNL1        0.0001
      9 C          61.2251   88.1948   11.1885 C.ar    1  UNL1        0.0000
     10 C          62.0763   88.3866   12.4086 C.ar    1  UNL1        0.0001
     11 C          63.0585   89.5187   12.4674 C.ar    1  UNL1        0.0029
     12 H          65.6614   90.4471   15.6918 H       1  UNL1        0.2922
     13 C          60.5048   88.9434    8.8071 C.ar    1  UNL1        0.0030
     14 C          59.8765   87.6091    8.5332 C.ar    1  UNL1        0.0002
     15 C          59.0252   87.4173    7.3132 C.ar    1  UNL1        0.0031
     16 C          58.8022   88.5597    6.3670 C.ar    1  UNL1        0.0366
     17 C          59.4305   89.8939    6.6409 C.ar    1  UNL1        0.1337
     18 O          59.2076   91.0363    5.6948 O.3     1  UNL1       -0.5055
     19 C          60.2818   90.0858    7.8610 C.ar    1  UNL1        0.0366
     20 H          58.6758   90.9165    4.9326 H       1  UNL1        0.2922
     21 C          64.1060   86.4076   15.8788 C.ar    1  UNL1        0.0644
     22 C          63.5168   86.8895   17.1713 C.ar    1  UNL1        0.0158
     23 C          63.0585   88.3117   17.3026 C.ar    1  UNL1        0.0013
     24 C          63.1895   89.2521   16.1413 C.ar    1  UNL1        0.0002
     25 C          63.7788   88.7702   14.8488 C.ar    1  UNL1        0.0042
     26 C          64.2370   87.3480   14.7175 C.ar    1  UNL1        0.0159
     27 N          64.5643   84.9853   15.7475 N.pl3   1  UNL1       -0.2187
     28 H          65.3208   84.6601   16.2871 H       1  UNL1        0.1734
     29 C          63.1755   83.1319   13.8407 C.3     1  UNL1        0.1996
     30 S          63.8699   84.0586   14.7941 S.O2    1  UNL1        0.0558
     31 O          62.6848   84.0023   15.7120 O.2     1  UNL1       -0.1544
     32 O          65.0549   84.1149   13.8763 O.2     1  UNL1       -0.1544
@<TRIPOS>BOND
     1    29    30    1
     2    30    31    2
     3    30    32    2
     4    30    27    1
     5    27    21    1
     6    21    22   ar
     7    22    23   ar
     8    23    24   ar
     9    24    25   ar
    10    25     1    1
    11     1     2   ar
    12     2     3    1
    13     2     4   ar
    14     4     5   ar
    15     5     6   ar
    16     6     7   ar
    17     7     8   ar
    18     8    13    1
    19    13    14   ar
    20    14    15   ar
    21    15    16   ar
    22    16    17   ar
    23    17    18    1
    24    17    19   ar
    25     8     9   ar
    26     9    10   ar
    27    10    11   ar
    28    25    26   ar
    29    26    21   ar
    30    11     1   ar
    31    11     6   ar
    32    19    13   ar
    33    27    28    1
    34     3    12    1
    35    18    20    1
@<TRIPOS>MOLECULE
*****
 32 35 0 0 0
SMALL
GASTEIGER

@<TRIPOS>ATOM
      1 C          62.1043   86.8564   10.8219 C.ar    1  UNL1        0.0338
      2 C          61.1876   87.2169    9.6908 C.ar    1  UNL1        0.1336
      3 O          60.5142   86.1364    8.8976 O.3     1  UNL1       -0.5055
      4 C          60.9442   88.6579    9.3528 C.ar    1  UNL1        0.0366
      5 C          61.6175   89.7384   10.1459 C.ar    1  UNL1        0.0031
      6 C          62.5343   89.3779   11.2771 C.ar    1  UNL1        0.0002
      7 C          63.2077   90.4584   12.0703 C.ar    1  UNL1        0.0000
      8 C          64.1244   90.0978   13.2014 C.ar    1  UNL1        0.0001
      9 C          64.3678   88.6568   13.5394 C.ar    1  UNL1        0.0000
     10 C          63.6945   87.5763   12.7463 C.ar    1  UNL1        0.0001
     11 C          62.7777   87.9369   11.6152 C.ar    1  UNL1        0.0029
     12 H          60.6662   85.2362    9.1087 H       1  UNL1        0.2922
     13 C          64.7978   91.1783   13.9947 C.ar    1  UNL1        0.0030
     14 C          65.8290   92.0533   13.3457 C.ar    1  UNL1        0.0002
     15 C          66.5024   93.1337   14.1388 C.ar    1  UNL1        0.0031
     16 C          66.1446   93.3393   15.5810 C.ar    1  UNL1        0.0366
     17 C          65.1134   92.4644   16.2300 C.ar    1  UNL1        0.1337
     18 O          64.7556   92.6699   17.6721 O.3     1  UNL1       -0.5055
     19 C          64.4400   91.3839   15.4367 C.ar    1  UNL1        0.0366
     20 H          65.1763   93.3448   18.1675 H       1  UNL1        0.2922
     21 C          62.4615   83.5045   12.9165 C.ar    1  UNL1        0.0644
     22 C          62.8345   82.5333   11.8360 C.ar    1  UNL1        0.0158
     23 C          62.9641   83.0032   10.4173 C.ar    1  UNL1        0.0013
     24 C          62.7207   84.4442   10.0793 C.ar    1  UNL1        0.0002
     25 C          62.3477   85.4153   11.1600 C.ar    1  UNL1        0.0042
     26 C          62.2181   84.9455   12.5785 C.ar    1  UNL1        0.0159
     27 N          62.3319   83.0347   14.3352 N.pl3   1  UNL1       -0.2187
     28 H          61.9246   82.1595   14.5287 H       1  UNL1        0.1734
     29 C          63.3139   84.7620   16.5829 C.3     1  UNL1        0.1996
     30 S          62.8229   83.8983   15.4591 S.O2    1  UNL1        0.0558
     31 O          61.5078   84.6194   15.4796 O.2     1  UNL1       -0.1544
     32 O          64.1381   83.1773   15.4386 O.2     1  UNL1       -0.1544
@<TRIPOS>BOND
     1    29    30    1
     2    30    31    2
     3    30    32    2
     4    30    27    1
     5    27    21    1
     6    21    22   ar
     7    22    23   ar
     8    23    24   ar
     9    24    25   ar
    10    25     1    1
    11     1     2   ar
    12     2     3    1
    13     2     4   ar
    14     4     5   ar
    15     5     6   ar
    16     6     7   ar
    17     7     8   ar
    18     8    13    1
    19    13    14   ar
    20    14    15   ar
    21    15    16   ar
    22    16    17   ar
    23    17    18    1
    24    17    19   ar
    25     8     9   ar
    26     9    10   ar
    27    10    11   ar
    28    25    26   ar
    29    26    21   ar
    30    11     1   ar
    31    11     6   ar
    32    19    13   ar
    33    27    28    1
    34     3    12    1
    35    18    20    1
@<TRIPOS>MOLECULE
*****
 32 35 0 0 0
SMALL
GASTEIGER

@<TRIPOS>ATOM
      1 C          63.6703   89.3310   13.1650 C.ar    1  UNL1        0.0338
      2 C          63.9132   88.9773   14.6023 C.ar    1  UNL1        0.1336
      3 O          63.3126   87.7298   15.1796 O.3     1  UNL1       -0.5055
      4 C          64.7565   89.8711   15.4625 C.ar    1  UNL1        0.0366
      5 C          65.3570   91.1186   14.8853 C.ar    1  UNL1        0.0031
      6 C          65.1142   91.4723   13.4479 C.ar    1  UNL1        0.0002
      7 C          65.7147   92.7198   12.8708 C.ar    1  UNL1        0.0000
      8 C          65.4719   93.0734   11.4335 C.ar    1  UNL1        0.0001
      9 C          64.6285   92.1796   10.5733 C.ar    1  UNL1        0.0000
     10 C          64.0280   90.9321   11.1505 C.ar    1  UNL1        0.0001
     11 C          64.2709   90.5785   12.5878 C.ar    1  UNL1        0.0029
     12 H          62.7858   87.1714   14.6423 H       1  UNL1        0.2922
     13 C          66.0724   94.3210   10.8562 C.ar    1  UNL1        0.0030
     14 C          66.0128   95.6073   11.6254 C.ar    1  UNL1        0.0002
     15 C          66.6133   96.8548   11.0482 C.ar    1  UNL1        0.0031
     16 C          67.2734   96.8160    9.7018 C.ar    1  UNL1        0.0366
     17 C          67.3331   95.5296    8.9326 C.ar    1  UNL1        0.1337
     18 O          67.9932   95.4906    7.5863 O.3     1  UNL1       -0.5055
     19 C          66.7325   94.2820    9.5099 C.ar    1  UNL1        0.0366
     20 H          68.3683   96.2699    7.2257 H       1  UNL1        0.2922
     21 C          62.2361   86.0649   11.4255 C.ar    1  UNL1        0.0644
     22 C          61.1403   86.6495   10.5846 C.ar    1  UNL1        0.0158
     23 C          60.8877   88.1281   10.6037 C.ar    1  UNL1        0.0013
     24 C          61.7311   89.0219   11.4639 C.ar    1  UNL1        0.0002
     25 C          62.8270   88.4372   12.3049 C.ar    1  UNL1        0.0042
     26 C          63.0795   86.9587   12.2857 C.ar    1  UNL1        0.0159
     27 N          62.4886   84.5864   11.4064 N.pl3   1  UNL1       -0.2187
     28 H          62.0888   84.0278   10.7012 H       1  UNL1        0.1734
     29 C          64.2123   83.3317   13.5170 C.3     1  UNL1        0.1996
     30 S          63.3505   83.9590   12.4617 S.O2    1  UNL1        0.0558
     31 O          64.3869   83.6397   11.4255 O.2     1  UNL1       -0.1544
     32 O          62.3140   84.2784   13.4980 O.2     1  UNL1       -0.1544
@<TRIPOS>BOND
     1    29    30    1
     2    30    31    2
     3    30    32    2
     4    30    27    1
     5    27    21    1
     6    21    22   ar
     7    22    23   ar
     8    23    24   ar
     9    24    25   ar
    10    25     1    1
    11     1     2   ar
    12     2     3    1
    13     2     4   ar
    14     4     5   ar
    15     5     6   ar
    16     6     7   ar
    17     7     8   ar
    18     8    13    1
    19    13    14   ar
    20    14    15   ar
    21    15    16   ar
    22    16    17   ar
    23    17    18    1
    24    17    19   ar
    25     8     9   ar
    26     9    10   ar
    27    10    11   ar
    28    25    26   ar
    29    26    21   ar
    30    11     1   ar
    31    11     6   ar
    32    19    13   ar
    33    27    28    1
    34     3    12    1
    35    18    20    1
@<TRIPOS>MOLECULE
*****
 32 35 0 0 0
SMALL
GASTEIGER

@<TRIPOS>ATOM
      1 C          63.7001   89.4985   13.4539 C.ar    1  UNL1        0.0338
      2 C          63.8593   89.3071   14.9331 C.ar    1  UNL1        0.1336
      3 O          63.2703   88.1000   15.6009 O.3     1  UNL1       -0.5055
      4 C          64.6076   90.3228   15.7445 C.ar    1  UNL1        0.0366
      5 C          65.1967   91.5299   15.0767 C.ar    1  UNL1        0.0031
      6 C          65.0374   91.7213   13.5975 C.ar    1  UNL1        0.0002
      7 C          65.6264   92.9284   12.9297 C.ar    1  UNL1        0.0000
      8 C          65.4672   93.1198   11.4506 C.ar    1  UNL1        0.0001
      9 C          64.7189   92.1041   10.6392 C.ar    1  UNL1        0.0000
     10 C          64.1299   90.8970   11.3069 C.ar    1  UNL1        0.0001
     11 C          64.2891   90.7056   12.7861 C.ar    1  UNL1        0.0029
     12 H          62.8029   87.4655   15.0941 H       1  UNL1        0.2922
     13 C          66.0562   94.3269   10.7827 C.ar    1  UNL1        0.0030
     14 C          66.0636   95.6481   11.4929 C.ar    1  UNL1        0.0002
     15 C          66.6526   96.8552   10.8251 C.ar    1  UNL1        0.0031
     16 C          67.2343   96.7411    9.4471 C.ar    1  UNL1        0.0366
     17 C          67.2268   95.4199    8.7370 C.ar    1  UNL1        0.1337
     18 O          67.8084   95.3058    7.3591 O.3     1  UNL1       -0.5055
     19 C          66.6378   94.2128    9.4048 C.ar    1  UNL1        0.0366
     20 H          68.1764   96.0598    6.9419 H       1  UNL1        0.2922
     21 C          60.9485   87.8602   11.1098 C.ar    1  UNL1        0.0644
     22 C          61.4552   86.4513   11.0197 C.ar    1  UNL1        0.0158
     23 C          62.7102   86.0580   11.7411 C.ar    1  UNL1        0.0013
     24 C          63.4585   87.0738   12.5525 C.ar    1  UNL1        0.0002
     25 C          62.9518   88.4828   12.6425 C.ar    1  UNL1        0.0042
     26 C          61.6968   88.8760   11.9212 C.ar    1  UNL1        0.0159
     27 N          59.6935   88.2535   10.3884 N.pl3   1  UNL1       -0.2187
     28 H          58.8477   88.3418   10.8845 H       1  UNL1        0.1734
     29 C          59.7609   88.7710    7.4342 C.3     1  UNL1        0.1996
     30 S          59.7272   88.5123    8.9113 S.O2    1  UNL1        0.0558
     31 O          60.2510   89.8947    9.1654 O.2     1  UNL1       -0.1544
     32 O          59.2034   87.1299    8.6572 O.2     1  UNL1       -0.1544
@<TRIPOS>BOND
     1    29    30    1
     2    30    31    2
     3    30    32    2
     4    30    27    1
     5    27    21    1
     6    21    22   ar
     7    22    23   ar
     8    23    24   ar
     9    24    25   ar
    10    25     1    1
    11     1     2   ar
    12     2     3    1
    13     2     4   ar
    14     4     5   ar
    15     5     6   ar
    16     6     7   ar
    17     7     8   ar
    18     8    13    1
    19    13    14   ar
    20    14    15   ar
    21    15    16   ar
    22    16    17   ar
    23    17    18    1
    24    17    19   ar
    25     8     9   ar
    26     9    10   ar
    27    10    11   ar
    28    25    26   ar
    29    26    21   ar
    30    11     1   ar
    31    11     6   ar
    32    19    13   ar
    33    27    28    1
    34     3    12    1
    35    18    20    1
@<TRIPOS>MOLECULE
*****
 32 35 0 0 0
SMALL
GASTEIGER

@<TRIPOS>ATOM
      1 C          63.3183   89.4414   12.7620 C.ar    1  UNL1        0.0338
      2 C          63.7090   88.8549   14.0861 C.ar    1  UNL1        0.1336
      3 O          63.0240   87.6194   14.5906 O.3     1  UNL1       -0.5055
      4 C          64.7846   89.5038   14.9058 C.ar    1  UNL1        0.0366
      5 C          65.4697   90.7392   14.4014 C.ar    1  UNL1        0.0031
      6 C          65.0790   91.3258   13.0772 C.ar    1  UNL1        0.0002
      7 C          65.7640   92.5612   12.5727 C.ar    1  UNL1        0.0000
      8 C          65.3733   93.1477   11.2486 C.ar    1  UNL1        0.0001
      9 C          64.2977   92.4988   10.4289 C.ar    1  UNL1        0.0000
     10 C          63.6127   91.2634   10.9334 C.ar    1  UNL1        0.0001
     11 C          64.0033   90.6769   12.2575 C.ar    1  UNL1        0.0029
     12 H          62.3520   87.2141   14.0786 H       1  UNL1        0.2922
     13 C          66.0583   94.3832   10.7441 C.ar    1  UNL1        0.0030
     14 C          66.1283   95.6076   11.6077 C.ar    1  UNL1        0.0002
     15 C          66.8133   96.8430   11.1033 C.ar    1  UNL1        0.0031
     16 C          67.4283   96.8541    9.7352 C.ar    1  UNL1        0.0366
     17 C          67.3583   95.6296    8.8716 C.ar    1  UNL1        0.1337
     18 O          67.9733   95.6406    7.5035 O.3     1  UNL1       -0.5055
     19 C          66.6733   94.3941    9.3761 C.ar    1  UNL1        0.0366
     20 H          68.4012   96.4123    7.1884 H       1  UNL1        0.2922
     21 C          61.3607   86.7520   10.5975 C.ar    1  UNL1        0.0644
     22 C          60.0913   87.4947   10.3030 C.ar    1  UNL1        0.0158
     23 C          59.8975   88.8864   10.8281 C.ar    1  UNL1        0.0013
     24 C          60.9731   89.5353   11.6478 C.ar    1  UNL1        0.0002
     25 C          62.2426   88.7925   11.9423 C.ar    1  UNL1        0.0042
     26 C          62.4364   87.4009   11.4172 C.ar    1  UNL1        0.0159
     27 N          61.5546   85.3603   10.0724 N.pl3   1  UNL1       -0.2187
     28 H          61.2419   84.5882   10.5971 H       1  UNL1        0.1734
     29 C          62.8950   84.9299    7.4233 C.3     1  UNL1        0.1996
     30 S          62.2248   85.1451    8.7478 S.O2    1  UNL1        0.0558
     31 O          63.4141   84.5547    9.4456 O.2     1  UNL1       -0.1544
     32 O          61.0355   85.7355    8.0501 O.2     1  UNL1       -0.1544
@<TRIPOS>BOND
     1    29    30    1
     2    30    31    2
     3    30    32    2
     4    30    27    1
     5    27    21    1
     6    21    22   ar
     7    22    23   ar
     8    23    24   ar
     9    24    25   ar
    10    25     1    1
    11     1     2   ar
    12     2     3    1
    13     2     4   ar
    14     4     5   ar
    15     5     6   ar
    16     6     7   ar
    17     7     8   ar
    18     8    13    1
    19    13    14   ar
    20    14    15   ar
    21    15    16   ar
    22    16    17   ar
    23    17    18    1
    24    17    19   ar
    25     8     9   ar
    26     9    10   ar
    27    10    11   ar
    28    25    26   ar
    29    26    21   ar
    30    11     1   ar
    31    11     6   ar
    32    19    13   ar
    33    27    28    1
    34     3    12    1
    35    18    20    1
