@<TRIPOS>MOLECULE
*****
 34 38 0 0 0
SMALL
GASTEIGER

@<TRIPOS>ATOM
      1 C          62.7574   86.8443   11.8841 C.2     1  UNL1        0.2506
      2 O          63.5483   87.4757   12.9912 O.2     1  UNL1       -0.2699
      3 N          61.7631   87.6606   11.1128 N.am    1  UNL1       -0.2724
      4 C          60.9720   87.0293   10.0057 C.3     1  UNL1        0.1231
      5 C          59.9778   87.8456    9.2344 C.3     1  UNL1        0.1351
      6 C          59.1867   87.2142    8.1273 C.3     1  UNL1        0.0339
      7 O          59.7744   89.2933    9.5702 O.3     1  UNL1       -0.3527
      8 C          60.5654   89.9247   10.6773 C.3     1  UNL1        0.1621
      9 C          61.5597   89.1084   11.4486 C.3     1  UNL1        0.1097
     10 C          63.5707   81.0534   10.5410 C.3     1  UNL1        0.0311
     11 C          63.3674   82.5012   10.8768 C.ar    1  UNL1       -0.0203
     12 C          63.2112   83.5110    9.7787 C.ar    1  UNL1       -0.0040
     13 C          63.0079   84.9587   10.1145 C.ar    1  UNL1        0.0058
     14 C          62.9607   85.3966   11.5484 C.ar    1  UNL1        0.0729
     15 C          63.1169   84.3868   12.6464 C.ar    1  UNL1        0.1069
     16 C          63.3202   82.9390   12.3106 C.ar    1  UNL1        0.0168
     17 N          63.0697   84.8246   14.0804 N.ar    1  UNL1       -0.1477
     18 N          64.2167   85.3819   14.8703 N.ar    1  UNL1       -0.1447
     19 C          63.7232   85.6838   16.2542 C.ar    1  UNL1        0.1446
     20 C          62.2711   85.3131   16.3196 C.ar    1  UNL1        0.1446
     21 N          61.8673   84.7821   14.9761 N.ar    1  UNL1       -0.1447
     22 C          62.3507   89.7398   12.5557 C.3     1  UNL1        0.0510
     23 C          63.4786   90.6745   12.2330 C.ar    1  UNL1        0.0086
     24 C          64.4731   91.0441   13.2932 C.ar    1  UNL1        0.0189
     25 C          65.6010   91.9788   12.9705 C.ar    1  UNL1        0.1027
     26 C          65.7344   92.5439   11.5875 C.ar    1  UNL1        0.0232
     27 C          64.7398   92.1744   10.5272 C.ar    1  UNL1        0.0309
     28 C          63.6119   91.2396   10.8500 C.ar    1  UNL1        0.1363
     29 F          62.6173   90.8701    9.7896 F       1  UNL1       -0.2045
     30 N          66.5956   92.3483   14.0309 N.ar    1  UNL1       -0.1478
     31 N          66.2725   92.7842   15.4293 N.ar    1  UNL1       -0.1447
     32 C          67.5650   93.0521   16.1417 C.ar    1  UNL1        0.1446
     33 C          68.6870   92.7819   15.1835 C.ar    1  UNL1        0.1446
     34 N          68.0879   92.3469   13.8790 N.ar    1  UNL1       -0.1447
@<TRIPOS>BOND
     1    10    11    1
     2    11    12   ar
     3    12    13   ar
     4    13    14   ar
     5    14     1    1
     6     1     2    2
     7     1     3   am
     8     3     4    1
     9     4     5    1
    10     5     6    1
    11     5     7    1
    12     7     8    1
    13     8     9    1
    14     9    22    1
    15    22    23    1
    16    23    24   ar
    17    24    25   ar
    18    25    30    1
    19    30    31   ar
    20    31    32   ar
    21    32    33   ar
    22    33    34   ar
    23    25    26   ar
    24    26    27   ar
    25    27    28   ar
    26    28    29    1
    27    14    15   ar
    28    15    17    1
    29    17    18   ar
    30    18    19   ar
    31    19    20   ar
    32    20    21   ar
    33    15    16   ar
    34    16    11   ar
    35     9     3    1
    36    28    23   ar
    37    21    17   ar
    38    34    30   ar
@<TRIPOS>MOLECULE
*****
 34 38 0 0 0
SMALL
GASTEIGER

@<TRIPOS>ATOM
      1 C          62.9602   87.1642   12.2964 C.2     1  UNL1        0.2506
      2 O          63.5941   87.5700   13.5939 O.2     1  UNL1       -0.2699
      3 N          62.2256   88.1787   11.4710 N.am    1  UNL1       -0.2724
      4 C          61.5917   87.7729   10.1734 C.3     1  UNL1        0.1231
      5 C          60.8571   88.7874    9.3481 C.3     1  UNL1        0.1351
      6 C          60.2232   88.3816    8.0505 C.3     1  UNL1        0.0339
      7 O          60.7565   90.2076    9.8202 O.3     1  UNL1       -0.3527
      8 C          61.3904   90.6134   11.1176 C.3     1  UNL1        0.1621
      9 C          62.1250   89.5989   11.9431 C.3     1  UNL1        0.1097
     10 C          63.3628   81.4834   10.4080 C.3     1  UNL1        0.0311
     11 C          63.2621   82.9036   10.8801 C.ar    1  UNL1       -0.0203
     12 C          63.1820   84.0215    9.8832 C.ar    1  UNL1       -0.0040
     13 C          63.0814   85.4417   10.3552 C.ar    1  UNL1        0.0058
     14 C          63.0608   85.7440   11.8243 C.ar    1  UNL1        0.0729
     15 C          63.1409   84.6262   12.8212 C.ar    1  UNL1        0.1069
     16 C          63.2416   83.2060   12.3491 C.ar    1  UNL1        0.0168
     17 N          63.1204   84.9285   14.2903 N.ar    1  UNL1       -0.1477
     18 N          64.2953   85.3562   15.1190 N.ar    1  UNL1       -0.1447
     19 C          63.8225   85.5482   16.5295 C.ar    1  UNL1        0.1446
     20 C          62.3552   85.2392   16.5726 C.ar    1  UNL1        0.1446
     21 N          61.9214   84.8562   15.1887 N.ar    1  UNL1       -0.1447
     22 C          62.7589   90.0047   13.2406 C.3     1  UNL1        0.0510
     23 C          64.0801   90.7147   13.2401 C.ar    1  UNL1        0.0086
     24 C          64.4416   91.6257   12.1045 C.ar    1  UNL1        0.0189
     25 C          65.7629   92.3358   12.1040 C.ar    1  UNL1        0.1027
     26 C          66.7227   92.1349   13.2390 C.ar    1  UNL1        0.0232
     27 C          66.3613   91.2239   14.3745 C.ar    1  UNL1        0.0309
     28 C          65.0400   90.5138   14.3751 C.ar    1  UNL1        0.1363
     29 F          64.6786   89.6028   15.5107 F       1  UNL1       -0.2045
     30 N          66.1243   93.2468   10.9684 N.ar    1  UNL1       -0.1478
     31 N          65.5460   94.6066   10.7106 N.ar    1  UNL1       -0.1447
     32 C          66.1916   95.1582    9.4742 C.ar    1  UNL1        0.1446
     33 C          67.1690   94.1392    8.9678 C.ar    1  UNL1        0.1446
     34 N          67.1274   92.9579    9.8913 N.ar    1  UNL1       -0.1447
@<TRIPOS>BOND
     1    10    11    1
     2    11    12   ar
     3    12    13   ar
     4    13    14   ar
     5    14     1    1
     6     1     2    2
     7     1     3   am
     8     3     4    1
     9     4     5    1
    10     5     6    1
    11     5     7    1
    12     7     8    1
    13     8     9    1
    14     9    22    1
    15    22    23    1
    16    23    24   ar
    17    24    25   ar
    18    25    30    1
    19    30    31   ar
    20    31    32   ar
    21    32    33   ar
    22    33    34   ar
    23    25    26   ar
    24    26    27   ar
    25    27    28   ar
    26    28    29    1
    27    14    15   ar
    28    15    17    1
    29    17    18   ar
    30    18    19   ar
    31    19    20   ar
    32    20    21   ar
    33    15    16   ar
    34    16    11   ar
    35     9     3    1
    36    28    23   ar
    37    21    17   ar
    38    34    30   ar
@<TRIPOS>MOLECULE
*****
 34 38 0 0 0
SMALL
GASTEIGER

@<TRIPOS>ATOM
      1 C          62.6489   88.7371   11.6474 C.2     1  UNL1        0.2506
      2 O          62.5110   90.2304   11.6163 O.2     1  UNL1       -0.2699
      3 N          63.3474   88.0722   12.7963 N.am    1  UNL1       -0.2724
      4 C          63.4854   86.5789   12.8274 C.3     1  UNL1        0.1231
      5 C          64.1840   85.9140   13.9763 C.3     1  UNL1        0.1351
      6 C          64.3219   84.4206   14.0075 C.3     1  UNL1        0.0339
      7 O          64.7446   86.7425   15.0940 O.3     1  UNL1       -0.3527
      8 C          64.6067   88.2357   15.0629 C.3     1  UNL1        0.1621
      9 C          63.9081   88.9007   13.9140 C.3     1  UNL1        0.1097
     10 C          60.4063   85.4233    7.1764 C.3     1  UNL1        0.0311
     11 C          60.9669   86.2518    8.2942 C.ar    1  UNL1       -0.0203
     12 C          62.4154   86.1300    8.6644 C.ar    1  UNL1       -0.0040
     13 C          62.9760   86.9585    9.7821 C.ar    1  UNL1        0.0058
     14 C          62.0882   87.9087   10.5297 C.ar    1  UNL1        0.0729
     15 C          60.6398   88.0304   10.1595 C.ar    1  UNL1        0.1069
     16 C          60.0791   87.2020    9.0417 C.ar    1  UNL1        0.0168
     17 N          59.7519   88.9807   10.9070 N.ar    1  UNL1       -0.1477
     18 N          58.9391   88.6549   12.1249 N.ar    1  UNL1       -0.1447
     19 C          58.2058   89.8963   12.5386 C.ar    1  UNL1        0.1446
     20 C          58.5654   90.9894   11.5762 C.ar    1  UNL1        0.1446
     21 N          59.5209   90.4234   10.5679 N.ar    1  UNL1       -0.1447
     22 C          63.7702   90.3940   13.8829 C.3     1  UNL1        0.0510
     23 C          64.9947   91.2598   13.8508 C.ar    1  UNL1        0.0086
     24 C          65.6270   91.6162   12.5381 C.ar    1  UNL1        0.0189
     25 C          66.8515   92.4820   12.5060 C.ar    1  UNL1        0.1027
     26 C          67.4436   92.9913   13.7866 C.ar    1  UNL1        0.0232
     27 C          66.8113   92.6349   15.0992 C.ar    1  UNL1        0.0309
     28 C          65.5868   91.7691   15.1313 C.ar    1  UNL1        0.1363
     29 F          64.9545   91.4127   16.4441 F       1  UNL1       -0.2045
     30 N          67.4838   92.8384   11.1933 N.ar    1  UNL1       -0.1478
     31 N          67.2724   94.1122   10.4299 N.ar    1  UNL1       -0.1447
     32 C          68.0964   94.0447    9.1783 C.ar    1  UNL1        0.1446
     33 C          68.8170   92.7291    9.1682 C.ar    1  UNL1        0.1446
     34 N          68.4383   91.9836   10.4135 N.ar    1  UNL1       -0.1447
@<TRIPOS>BOND
     1    10    11    1
     2    11    12   ar
     3    12    13   ar
     4    13    14   ar
     5    14     1    1
     6     1     2    2
     7     1     3   am
     8     3     4    1
     9     4     5    1
    10     5     6    1
    11     5     7    1
    12     7     8    1
    13     8     9    1
    14     9    22    1
    15    22    23    1
    16    23    24   ar
    17    24    25   ar
    18    25    30    1
    19    30    31   ar
    20    31    32   ar
    21    32    33   ar
    22    33    34   ar
    23    25    26   ar
    24    26    27   ar
    25    27    28   ar
    26    28    29    1
    27    14    15   ar
    28    15    17    1
    29    17    18   ar
    30    18    19   ar
    31    19    20   ar
    32    20    21   ar
    33    15    16   ar
    34    16    11   ar
    35     9     3    1
    36    28    23   ar
    37    21    17   ar
    38    34    30   ar
@<TRIPOS>MOLECULE
*****
 34 38 0 0 0
SMALL
GASTEIGER

@<TRIPOS>ATOM
      1 C          63.4972   87.7526   13.2998 C.2     1  UNL1        0.2506
      2 O          63.6600   88.8039   12.2423 O.2     1  UNL1       -0.2699
      3 N          63.3723   88.1512   14.7404 N.am    1  UNL1       -0.2724
      4 C          63.2095   87.0999   15.7980 C.3     1  UNL1        0.1231
      5 C          63.0846   87.4984   17.2387 C.3     1  UNL1        0.1351
      6 C          62.9218   86.4472   18.2963 C.3     1  UNL1        0.0339
      7 O          63.1225   88.9482   17.6218 O.3     1  UNL1       -0.3527
      8 C          63.2853   89.9994   16.5643 C.3     1  UNL1        0.1621
      9 C          63.4102   89.6009   15.1236 C.3     1  UNL1        0.1097
     10 C          63.3458   81.9537   11.7672 C.3     1  UNL1        0.0311
     11 C          63.3836   83.4034   12.1503 C.ar    1  UNL1       -0.0203
     12 C          64.2501   83.8561   13.2880 C.ar    1  UNL1       -0.0040
     13 C          64.2879   85.3059   13.6711 C.ar    1  UNL1        0.0058
     14 C          63.4594   86.3029   12.9166 C.ar    1  UNL1        0.0729
     15 C          62.5930   85.8502   11.7790 C.ar    1  UNL1        0.1069
     16 C          62.5551   84.4005   11.3958 C.ar    1  UNL1        0.0168
     17 N          61.7643   86.8473   11.0244 N.ar    1  UNL1       -0.1477
     18 N          62.0254   87.3355    9.6303 N.ar    1  UNL1       -0.1447
     19 C          60.9516   88.3211    9.2756 C.ar    1  UNL1        0.1446
     20 C          60.0270   88.4420   10.4506 C.ar    1  UNL1        0.1446
     21 N          60.5293   87.5311   11.5314 N.ar    1  UNL1       -0.1447
     22 C          63.5730   90.6521   14.0660 C.3     1  UNL1        0.0510
     23 C          64.8319   91.4654   14.0044 C.ar    1  UNL1        0.0086
     24 C          65.4855   91.7367   12.6819 C.ar    1  UNL1        0.0189
     25 C          66.7444   92.5499   12.6203 C.ar    1  UNL1        0.1027
     26 C          67.3497   93.0919   13.8812 C.ar    1  UNL1        0.0232
     27 C          66.6960   92.8206   15.2037 C.ar    1  UNL1        0.0309
     28 C          65.4371   92.0074   15.2653 C.ar    1  UNL1        0.1363
     29 F          64.7834   91.7361   16.5879 F       1  UNL1       -0.2045
     30 N          67.3981   92.8212   11.2977 N.ar    1  UNL1       -0.1478
     31 N          68.4094   91.9463   10.6181 N.ar    1  UNL1       -0.1447
     32 C          68.7916   92.5993    9.3229 C.ar    1  UNL1        0.1446
     33 C          68.0164   93.8778    9.2021 C.ar    1  UNL1        0.1446
     34 N          67.1552   94.0149   10.4225 N.ar    1  UNL1       -0.1447
@<TRIPOS>BOND
     1    10    11    1
     2    11    12   ar
     3    12    13   ar
     4    13    14   ar
     5    14     1    1
     6     1     2    2
     7     1     3   am
     8     3     4    1
     9     4     5    1
    10     5     6    1
    11     5     7    1
    12     7     8    1
    13     8     9    1
    14     9    22    1
    15    22    23    1
    16    23    24   ar
    17    24    25   ar
    18    25    30    1
    19    30    31   ar
    20    31    32   ar
    21    32    33   ar
    22    33    34   ar
    23    25    26   ar
    24    26    27   ar
    25    27    28   ar
    26    28    29    1
    27    14    15   ar
    28    15    17    1
    29    17    18   ar
    30    18    19   ar
    31    19    20   ar
    32    20    21   ar
    33    15    16   ar
    34    16    11   ar
    35     9     3    1
    36    28    23   ar
    37    21    17   ar
    38    34    30   ar
@<TRIPOS>MOLECULE
*****
 34 38 0 0 0
SMALL
GASTEIGER

@<TRIPOS>ATOM
      1 C          64.9847   91.2231   12.8420 C.2     1  UNL1        0.2506
      2 O          65.7285   90.8313   14.0843 O.2     1  UNL1       -0.2699
      3 N          63.8781   90.3528   12.3245 N.am    1  UNL1       -0.2724
      4 C          63.1343   90.7445   11.0822 C.3     1  UNL1        0.1231
      5 C          62.0276   89.8742   10.5647 C.3     1  UNL1        0.1351
      6 C          61.2838   90.2660    9.3224 C.3     1  UNL1        0.0339
      7 O          61.6647   88.6121   11.2896 O.3     1  UNL1       -0.3527
      8 C          62.4085   88.2203   12.5318 C.3     1  UNL1        0.1621
      9 C          63.5152   89.0907   13.0494 C.3     1  UNL1        0.1097
     10 C          66.4364   96.2716    9.9427 C.3     1  UNL1        0.0311
     11 C          66.0735   95.0094   10.6675 C.ar    1  UNL1       -0.0203
     12 C          65.0887   94.0536   10.0622 C.ar    1  UNL1       -0.0040
     13 C          64.7258   92.7915   10.7870 C.ar    1  UNL1        0.0058
     14 C          65.3476   92.4852   12.1172 C.ar    1  UNL1        0.0729
     15 C          66.3324   93.4411   12.7226 C.ar    1  UNL1        0.1069
     16 C          66.6953   94.7032   11.9978 C.ar    1  UNL1        0.0168
     17 N          66.9543   93.1349   14.0529 N.ar    1  UNL1       -0.1477
     18 N          68.3749   92.7135   14.2859 N.ar    1  UNL1       -0.1447
     19 C          68.5634   92.5145   15.7607 C.ar    1  UNL1        0.1446
     20 C          67.2592   92.8129   16.4390 C.ar    1  UNL1        0.1446
     21 N          66.2647   93.1963   15.3835 N.ar    1  UNL1       -0.1447
     22 C          64.2589   88.6989   14.2917 C.3     1  UNL1        0.0510
     23 C          63.8978   87.4354   15.0149 C.ar    1  UNL1        0.0086
     24 C          63.9916   86.1147   14.3101 C.ar    1  UNL1        0.0189
     25 C          63.6305   84.8512   15.0334 C.ar    1  UNL1        0.1027
     26 C          63.1756   84.9083   16.4615 C.ar    1  UNL1        0.0232
     27 C          63.0818   86.2290   17.1664 C.ar    1  UNL1        0.0309
     28 C          63.4429   87.4926   16.4431 C.ar    1  UNL1        0.1363
     29 F          63.3491   88.8133   17.1481 F       1  UNL1       -0.2045
     30 N          63.7244   83.5304   14.3284 N.ar    1  UNL1       -0.1478
     31 N          64.3588   83.2880   12.9909 N.ar    1  UNL1       -0.1447
     32 C          64.2268   81.8280   12.6730 C.ar    1  UNL1        0.1446
     33 C          63.5108   81.1681   13.8141 C.ar    1  UNL1        0.1446
     34 N          63.2003   82.2203   14.8371 N.ar    1  UNL1       -0.1447
@<TRIPOS>BOND
     1    10    11    1
     2    11    12   ar
     3    12    13   ar
     4    13    14   ar
     5    14     1    1
     6     1     2    2
     7     1     3   am
     8     3     4    1
     9     4     5    1
    10     5     6    1
    11     5     7    1
    12     7     8    1
    13     8     9    1
    14     9    22    1
    15    22    23    1
    16    23    24   ar
    17    24    25   ar
    18    25    30    1
    19    30    31   ar
    20    31    32   ar
    21    32    33   ar
    22    33    34   ar
    23    25    26   ar
    24    26    27   ar
    25    27    28   ar
    26    28    29    1
    27    14    15   ar
    28    15    17    1
    29    17    18   ar
    30    18    19   ar
    31    19    20   ar
    32    20    21   ar
    33    15    16   ar
    34    16    11   ar
    35     9     3    1
    36    28    23   ar
    37    21    17   ar
    38    34    30   ar
@<TRIPOS>MOLECULE
*****
 34 38 0 0 0
SMALL
GASTEIGER

@<TRIPOS>ATOM
      1 C          63.4155   87.3626   12.9610 C.2     1  UNL1        0.2506
      2 O          63.4433   88.0303   11.6181 O.2     1  UNL1       -0.2699
      3 N          63.3091   88.1897   14.2077 N.am    1  UNL1       -0.2724
      4 C          63.2814   87.5220   15.5507 C.3     1  UNL1        0.1231
      5 C          63.1749   88.3491   16.7975 C.3     1  UNL1        0.1351
      6 C          63.1472   87.6814   18.1404 C.3     1  UNL1        0.0339
      7 O          63.0962   89.8440   16.7014 O.3     1  UNL1       -0.3527
      8 C          63.1239   90.5117   15.3585 C.3     1  UNL1        0.1621
      9 C          63.2304   89.6846   14.1116 C.3     1  UNL1        0.1097
     10 C          63.7304   81.3832   13.3454 C.3     1  UNL1        0.0311
     11 C          63.6517   82.8780   13.2493 C.ar    1  UNL1       -0.0203
     12 C          64.3411   83.7326   14.2712 C.ar    1  UNL1       -0.0040
     13 C          64.2624   85.2275   14.1751 C.ar    1  UNL1        0.0058
     14 C          63.4943   85.8677   13.0571 C.ar    1  UNL1        0.0729
     15 C          62.8049   85.0132   12.0352 C.ar    1  UNL1        0.1069
     16 C          62.8836   83.5183   12.1313 C.ar    1  UNL1        0.0168
     17 N          62.0367   85.6534   10.9171 N.ar    1  UNL1       -0.1477
     18 N          60.8246   86.5245   11.0658 N.ar    1  UNL1       -0.1447
     19 C          60.3845   86.9445    9.6947 C.ar    1  UNL1        0.1446
     20 C          61.3246   86.3328    8.6985 C.ar    1  UNL1        0.1446
     21 N          62.3457   85.5349    9.4540 N.ar    1  UNL1       -0.1447
     22 C          63.2581   90.3523   12.7688 C.3     1  UNL1        0.0510
     23 C          64.3562   91.3177   12.4337 C.ar    1  UNL1        0.0086
     24 C          65.4150   91.6311   13.4489 C.ar    1  UNL1        0.0189
     25 C          66.5130   92.5964   13.1139 C.ar    1  UNL1        0.1027
     26 C          66.5524   93.2484   11.7636 C.ar    1  UNL1        0.0232
     27 C          65.4936   92.9350   10.7483 C.ar    1  UNL1        0.0309
     28 C          64.3955   91.9696   11.0834 C.ar    1  UNL1        0.1363
     29 F          63.3367   91.6562   10.0681 F       1  UNL1       -0.2045
     30 N          67.5719   92.9098   14.1292 N.ar    1  UNL1       -0.1478
     31 N          67.4248   93.8374   15.2988 N.ar    1  UNL1       -0.1447
     32 C          68.7256   93.8515   16.0456 C.ar    1  UNL1        0.1446
     33 C          69.6766   92.9327   15.3375 C.ar    1  UNL1        0.1446
     34 N          68.9635   92.3507   14.1531 N.ar    1  UNL1       -0.1447
@<TRIPOS>BOND
     1    10    11    1
     2    11    12   ar
     3    12    13   ar
     4    13    14   ar
     5    14     1    1
     6     1     2    2
     7     1     3   am
     8     3     4    1
     9     4     5    1
    10     5     6    1
    11     5     7    1
    12     7     8    1
    13     8     9    1
    14     9    22    1
    15    22    23    1
    16    23    24   ar
    17    24    25   ar
    18    25    30    1
    19    30    31   ar
    20    31    32   ar
    21    32    33   ar
    22    33    34   ar
    23    25    26   ar
    24    26    27   ar
    25    27    28   ar
    26    28    29    1
    27    14    15   ar
    28    15    17    1
    29    17    18   ar
    30    18    19   ar
    31    19    20   ar
    32    20    21   ar
    33    15    16   ar
    34    16    11   ar
    35     9     3    1
    36    28    23   ar
    37    21    17   ar
    38    34    30   ar
