@<TRIPOS>MOLECULE
*****
 33 36 0 0 0
SMALL
GASTEIGER

@<TRIPOS>ATOM
      1 C          63.5976   86.8005   13.8669 C.3     1  UNL1        0.1232
      2 C          63.9426   86.8873   15.3241 C.3     1  UNL1        0.0216
      3 C          63.8122   85.6760   16.1991 C.3     1  UNL1        0.0030
      4 C          63.3368   84.3779   15.6169 C.3     1  UNL1        0.0178
      5 C          62.9917   84.2911   14.1598 C.3     1  UNL1        0.0796
      6 N          63.1221   85.5024   13.2848 N.3     1  UNL1       -0.1546
      7 C          62.5163   82.9930   13.5777 C.3     1  UNL1        0.0164
      8 C          62.4209   82.0472   12.4173 C.3     1  UNL1        0.0014
      9 C          61.7882   81.6904   13.7297 C.3     1  UNL1        0.0014
     10 S          62.7771   85.4156   11.8275 S.O2    1  UNL1        0.0633
     11 O          64.0831   84.7284   11.5592 O.2     1  UNL1       -0.1528
     12 O          61.4711   86.1028   12.0958 O.2     1  UNL1       -0.1528
     13 C          62.4321   85.3288   10.3703 C.ar    1  UNL1        0.1223
     14 C          63.3169   84.5597    9.4346 C.ar    1  UNL1        0.0208
     15 C          62.9719   84.4730    7.9774 C.ar    1  UNL1        0.0128
     16 C          61.7421   85.1553    7.4559 C.ar    1  UNL1        0.0578
     17 CL         61.3971   85.0685    5.9987 Cl      1  UNL1       -0.0822
     18 C          60.8572   85.9244    8.3916 C.ar    1  UNL1        0.0128
     19 C          61.2022   86.0112    9.8488 C.ar    1  UNL1        0.0208
     20 C          63.7280   88.0118   12.9918 C.3     1  UNL1        0.2276
     21 O          63.1701   89.3282   13.4453 O.3     1  UNL1       -0.4330
     22 O          64.4147   90.3968   15.4601 O.2     1  UNL1       -0.2262
     23 C          64.0856   90.3809   13.9967 C.2     1  UNL1        0.4050
     24 N          64.6719   91.4175   13.0848 N.am    1  UNL1       -0.2432
     25 C          64.3427   91.4016   11.6214 C.3     1  UNL1        0.1141
     26 C          64.9290   92.4382   10.7095 C.3     1  UNL1        0.0941
     27 N          65.8445   93.4908   11.2609 N.3     1  UNL1       -0.2676
     28 C          66.1736   93.5067   12.7243 C.3     1  UNL1        0.0941
     29 C          65.5873   92.4700   13.6362 C.3     1  UNL1        0.1141
     30 C          66.4308   94.5274   10.3490 C.3     1  UNL1        0.1043
     31 C          67.3994   94.1224    9.2777 C.3     1  UNL1        0.1544
     32 O          68.8271   93.8270    9.6301 O.3     1  UNL1       -0.3805
     33 H          69.2582   94.6387    9.9403 H       1  UNL1        0.2105
@<TRIPOS>BOND
     1    22    23    2
     2    23    21    1
     3    21    20    1
     4     1    20    1
     5     1     2    1
     6     2     3    1
     7     3     4    1
     8     4     5    1
     9     5     7    1
    10     7     8    1
    11     8     9    1
    12     5     6    1
    13     6    10    1
    14    10    11    2
    15    10    12    2
    16    10    13    1
    17    13    14   ar
    18    14    15   ar
    19    15    16   ar
    20    16    17    1
    21    16    18   ar
    22    18    19   ar
    23    23    24   am
    24    24    25    1
    25    25    26    1
    26    26    27    1
    27    27    30    1
    28    30    31    1
    29    31    32    1
    30    27    28    1
    31    28    29    1
    32     6     1    1
    33    19    13   ar
    34    29    24    1
    35     9     7    1
    36    32    33    1
@<TRIPOS>MOLECULE
*****
 33 36 0 0 0
SMALL
GASTEIGER

@<TRIPOS>ATOM
      1 C          63.6099   86.4654   14.2901 C.3     1  UNL1        0.1232
      2 C          63.7707   86.5544   15.7787 C.3     1  UNL1        0.0216
      3 C          63.4195   85.3795   16.6426 C.3     1  UNL1        0.0030
      4 C          62.9076   84.1156   16.0177 C.3     1  UNL1        0.0178
      5 C          62.7468   84.0266   14.5290 C.3     1  UNL1        0.0796
      6 N          63.0980   85.2015   13.6652 N.3     1  UNL1       -0.1546
      7 C          62.2349   82.7627   13.9042 C.3     1  UNL1        0.0164
      8 C          61.4033   81.5171   13.9867 C.3     1  UNL1        0.0014
      9 C          62.1799   81.8191   12.7394 C.3     1  UNL1        0.0014
     10 S          62.9373   85.1125   12.1765 S.O2    1  UNL1        0.0633
     11 O          61.6238   85.8301   12.2754 O.2     1  UNL1       -0.1528
     12 O          64.2507   84.3949   12.0775 O.2     1  UNL1       -0.1528
     13 C          62.7765   85.0236   10.6878 C.ar    1  UNL1        0.1223
     14 C          61.7907   85.9096    9.9856 C.ar    1  UNL1        0.0208
     15 C          61.6299   85.8206    8.4968 C.ar    1  UNL1        0.0128
     16 C          62.4550   84.8456    7.7104 C.ar    1  UNL1        0.0578
     17 CL         62.2942   84.7567    6.2217 Cl      1  UNL1       -0.0822
     18 C          63.4408   83.9596    8.4125 C.ar    1  UNL1        0.0128
     19 C          63.6016   84.0485    9.9012 C.ar    1  UNL1        0.0208
     20 C          63.9611   87.6403   13.4262 C.3     1  UNL1        0.2276
     21 O          63.0721   88.8482   13.4053 O.3     1  UNL1       -0.4330
     22 O          62.8787   90.3805   11.3160 O.2     1  UNL1       -0.2262
     23 C          63.4912   90.0751   12.6508 C.2     1  UNL1        0.4050
     24 N          64.5228   90.9965   13.2311 N.am    1  UNL1       -0.2432
     25 C          65.1353   90.6911   14.5659 C.3     1  UNL1        0.1141
     26 C          66.1669   91.6125   15.1461 C.3     1  UNL1        0.0941
     27 N          66.5860   92.8394   14.3917 N.3     1  UNL1       -0.2676
     28 C          65.9736   93.1448   13.0569 C.3     1  UNL1        0.0941
     29 C          64.9419   92.2233   12.4766 C.3     1  UNL1        0.1141
     30 C          67.6176   93.7608   14.9720 C.3     1  UNL1        0.1043
     31 C          68.9832   93.2402   15.3097 C.3     1  UNL1        0.1544
     32 O          69.7239   92.3839   14.3259 O.3     1  UNL1       -0.3805
     33 H          69.2537   91.5434   14.2105 H       1  UNL1        0.2105
@<TRIPOS>BOND
     1    22    23    2
     2    23    21    1
     3    21    20    1
     4     1    20    1
     5     1     2    1
     6     2     3    1
     7     3     4    1
     8     4     5    1
     9     5     7    1
    10     7     8    1
    11     8     9    1
    12     5     6    1
    13     6    10    1
    14    10    11    2
    15    10    12    2
    16    10    13    1
    17    13    14   ar
    18    14    15   ar
    19    15    16   ar
    20    16    17    1
    21    16    18   ar
    22    18    19   ar
    23    23    24   am
    24    24    25    1
    25    25    26    1
    26    26    27    1
    27    27    30    1
    28    30    31    1
    29    31    32    1
    30    27    28    1
    31    28    29    1
    32     6     1    1
    33    19    13   ar
    34    29    24    1
    35     9     7    1
    36    32    33    1
@<TRIPOS>MOLECULE
*****
 33 36 0 0 0
SMALL
GASTEIGER

@<TRIPOS>ATOM
      1 C          63.7715   90.3023   15.3053 C.3     1  UNL1        0.1232
      2 C          64.4476   91.1471   16.3441 C.3     1  UNL1        0.0216
      3 C          65.3422   92.2763   15.9264 C.3     1  UNL1        0.0030
      4 C          65.5607   92.5607   14.4699 C.3     1  UNL1        0.0178
      5 C          64.8845   91.7160   13.4311 C.3     1  UNL1        0.0796
      6 N          63.9899   90.5868   13.8488 N.3     1  UNL1       -0.1546
      7 C          65.1029   92.0004   11.9746 C.3     1  UNL1        0.0164
      8 C          64.5759   92.0744   10.5722 C.3     1  UNL1        0.0014
      9 C          66.0083   92.4191   10.8544 C.3     1  UNL1        0.0014
     10 S          63.3137   89.7419   12.8100 S.O2    1  UNL1        0.0633
     11 O          64.2586   88.6164   13.1103 O.2     1  UNL1       -0.1528
     12 O          62.3687   90.8674   12.5097 O.2     1  UNL1       -0.1528
     13 C          62.6375   88.8971   11.7713 C.ar    1  UNL1        0.1223
     14 C          61.8656   89.5475   10.6617 C.ar    1  UNL1        0.0208
     15 C          61.1894   88.7026    9.6229 C.ar    1  UNL1        0.0128
     16 C          61.2852   87.2074    9.6938 C.ar    1  UNL1        0.0578
     17 CL         60.6090   86.3626    8.6550 Cl      1  UNL1       -0.0822
     18 C          62.0571   86.5570   10.8033 C.ar    1  UNL1        0.0128
     19 C          62.7332   87.4018   11.8421 C.ar    1  UNL1        0.0208
     20 C          62.8768   89.1730   15.7230 C.3     1  UNL1        0.2276
     21 O          63.4418   88.0110   16.4849 O.3     1  UNL1       -0.4330
     22 O          61.5220   86.5939   17.5127 O.2     1  UNL1       -0.2262
     23 C          62.6769   86.7231   16.5643 C.2     1  UNL1        0.4050
     24 N          63.0670   85.5643   15.6953 N.am    1  UNL1       -0.2432
     25 C          64.2219   85.6935   14.7469 C.3     1  UNL1        0.1141
     26 C          64.6120   84.5348   13.8780 C.3     1  UNL1        0.0941
     27 N          63.8472   83.2468   13.9574 N.3     1  UNL1       -0.2676
     28 C          62.6922   83.1176   14.9057 C.3     1  UNL1        0.0941
     29 C          62.3022   84.2765   15.7747 C.3     1  UNL1        0.1141
     30 C          64.2373   82.0881   13.0884 C.3     1  UNL1        0.1043
     31 C          64.0347   82.1622   11.6040 C.3     1  UNL1        0.1544
     32 O          65.0309   82.8845   10.7462 O.3     1  UNL1       -0.3805
     33 H          65.0154   83.8306   10.9596 H       1  UNL1        0.2105
@<TRIPOS>BOND
     1    22    23    2
     2    23    21    1
     3    21    20    1
     4     1    20    1
     5     1     2    1
     6     2     3    1
     7     3     4    1
     8     4     5    1
     9     5     7    1
    10     7     8    1
    11     8     9    1
    12     5     6    1
    13     6    10    1
    14    10    11    2
    15    10    12    2
    16    10    13    1
    17    13    14   ar
    18    14    15   ar
    19    15    16   ar
    20    16    17    1
    21    16    18   ar
    22    18    19   ar
    23    23    24   am
    24    24    25    1
    25    25    26    1
    26    26    27    1
    27    27    30    1
    28    30    31    1
    29    31    32    1
    30    27    28    1
    31    28    29    1
    32     6     1    1
    33    19    13   ar
    34    29    24    1
    35     9     7    1
    36    32    33    1
@<TRIPOS>MOLECULE
*****
 33 36 0 0 0
SMALL
GASTEIGER

@<TRIPOS>ATOM
      1 C          61.8066   89.0130   11.0547 C.3     1  UNL1        0.1232
      2 C          61.2223   90.3429   10.6807 C.3     1  UNL1        0.0216
      3 C          60.3396   90.4615    9.4737 C.3     1  UNL1        0.0030
      4 C          60.0412   89.2503    8.6408 C.3     1  UNL1        0.0178
      5 C          60.6255   87.9204    9.0147 C.3     1  UNL1        0.0796
      6 N          61.5082   87.8017   10.2217 N.3     1  UNL1       -0.1546
      7 C          60.3272   86.7091    8.1818 C.3     1  UNL1        0.0164
      8 C          59.3357   85.8132    7.5005 C.3     1  UNL1        0.0014
      9 C          60.8019   85.5071    7.4204 C.3     1  UNL1        0.0014
     10 S          62.0926   86.4718   10.5957 S.O2    1  UNL1        0.0633
     11 O          63.0915   86.5981    9.4840 O.2     1  UNL1       -0.1528
     12 O          61.0936   86.3455   11.7075 O.2     1  UNL1       -0.1528
     13 C          62.6769   85.1419   10.9697 C.ar    1  UNL1        0.1223
     14 C          62.5850   84.6536   12.3850 C.ar    1  UNL1        0.0208
     15 C          63.1694   83.3236   12.7590 C.ar    1  UNL1        0.0128
     16 C          63.8457   82.4821   11.7177 C.ar    1  UNL1        0.0578
     17 CL         64.4301   81.1522   12.0917 Cl      1  UNL1       -0.0822
     18 C          63.9376   82.9704   10.3024 C.ar    1  UNL1        0.0128
     19 C          63.3533   84.3003    9.9284 C.ar    1  UNL1        0.0208
     20 C          62.6893   88.8943   12.2617 C.3     1  UNL1        0.2276
     21 O          62.5951   89.9089   13.3624 O.3     1  UNL1       -0.4330
     22 O          64.2815   90.3180   15.2960 O.2     1  UNL1       -0.2262
     23 C          63.8380   90.5664   13.8848 C.2     1  UNL1        0.4050
     24 N          64.6374   91.4724   12.9959 N.am    1  UNL1       -0.2432
     25 C          64.1939   91.7209   11.5847 C.3     1  UNL1        0.1141
     26 C          64.9932   92.6269   10.6959 C.3     1  UNL1        0.0941
     27 N          66.2362   93.2845   11.2182 N.3     1  UNL1       -0.2676
     28 C          66.6797   93.0360   12.6294 C.3     1  UNL1        0.0941
     29 C          65.8802   92.1300   13.5183 C.3     1  UNL1        0.1141
     30 C          67.0355   94.1905   10.3294 C.3     1  UNL1        0.1043
     31 C          68.0114   93.6098    9.3493 C.3     1  UNL1        0.1544
     32 O          69.3829   93.2082    9.8050 O.3     1  UNL1       -0.3805
     33 H          69.8769   93.9972   10.0777 H       1  UNL1        0.2105
@<TRIPOS>BOND
     1    22    23    2
     2    23    21    1
     3    21    20    1
     4     1    20    1
     5     1     2    1
     6     2     3    1
     7     3     4    1
     8     4     5    1
     9     5     7    1
    10     7     8    1
    11     8     9    1
    12     5     6    1
    13     6    10    1
    14    10    11    2
    15    10    12    2
    16    10    13    1
    17    13    14   ar
    18    14    15   ar
    19    15    16   ar
    20    16    17    1
    21    16    18   ar
    22    18    19   ar
    23    23    24   am
    24    24    25    1
    25    25    26    1
    26    26    27    1
    27    27    30    1
    28    30    31    1
    29    31    32    1
    30    27    28    1
    31    28    29    1
    32     6     1    1
    33    19    13   ar
    34    29    24    1
    35     9     7    1
    36    32    33    1
@<TRIPOS>MOLECULE
*****
 33 36 0 0 0
SMALL
GASTEIGER

@<TRIPOS>ATOM
      1 C          64.3273   91.5731   11.6949 C.3     1  UNL1        0.1232
      2 C          64.7463   92.6544   10.7435 C.3     1  UNL1        0.0216
      3 C          65.6836   93.7329   11.1998 C.3     1  UNL1        0.0030
      4 C          66.2019   93.7302   12.6074 C.3     1  UNL1        0.0178
      5 C          65.7829   92.6489   13.5587 C.3     1  UNL1        0.0796
      6 N          64.8456   91.5704   13.1025 N.3     1  UNL1       -0.1546
      7 C          66.3012   92.6461   14.9664 C.3     1  UNL1        0.0164
      8 C          67.4535   92.6670   15.9263 C.3     1  UNL1        0.0014
      9 C          66.0466   92.6205   16.4443 C.3     1  UNL1        0.0014
     10 S          64.4265   90.4890   14.0540 S.O2    1  UNL1        0.0633
     11 O          65.6012   89.6591   13.6280 O.2     1  UNL1       -0.1528
     12 O          63.2519   91.3188   14.4799 O.2     1  UNL1       -0.1528
     13 C          64.0076   89.4076   15.0053 C.ar    1  UNL1        0.1223
     14 C          63.2893   89.7615   16.2737 C.ar    1  UNL1        0.0208
     15 C          62.8703   88.6800   17.2251 C.ar    1  UNL1        0.0128
     16 C          63.1696   87.2449   16.9080 C.ar    1  UNL1        0.0578
     17 CL         62.7506   86.1635   17.8594 Cl      1  UNL1       -0.0822
     18 C          63.8879   86.8910   15.6396 C.ar    1  UNL1        0.0128
     19 C          64.3069   87.9723   14.6883 C.ar    1  UNL1        0.0208
     20 C          63.3899   90.4945   11.2387 C.3     1  UNL1        0.2276
     21 O          61.9927   90.4362   11.7813 O.3     1  UNL1       -0.4330
     22 O          59.6859   91.1166   10.7985 O.2     1  UNL1       -0.2262
     23 C          60.8412   90.1619   10.8599 C.2     1  UNL1        0.4050
     24 N          60.8450   88.9329   10.0000 N.am    1  UNL1       -0.2432
     25 C          62.0003   87.9781   10.0614 C.3     1  UNL1        0.1141
     26 C          62.0041   86.7491    9.2015 C.3     1  UNL1        0.0941
     27 N          60.8526   86.4748    8.2801 N.3     1  UNL1       -0.2676
     28 C          59.6973   87.4296    8.2188 C.3     1  UNL1        0.0941
     29 C          59.6935   88.6586    9.0787 C.3     1  UNL1        0.1141
     30 C          60.8564   85.2458    7.4202 C.3     1  UNL1        0.1043
     31 C          62.0888   84.8726    6.6509 C.3     1  UNL1        0.1544
     32 O          61.9653   84.1619    5.3357 O.3     1  UNL1       -0.3805
     33 H          61.5900   83.2791    5.4792 H       1  UNL1        0.2105
@<TRIPOS>BOND
     1    22    23    2
     2    23    21    1
     3    21    20    1
     4     1    20    1
     5     1     2    1
     6     2     3    1
     7     3     4    1
     8     4     5    1
     9     5     7    1
    10     7     8    1
    11     8     9    1
    12     5     6    1
    13     6    10    1
    14    10    11    2
    15    10    12    2
    16    10    13    1
    17    13    14   ar
    18    14    15   ar
    19    15    16   ar
    20    16    17    1
    21    16    18   ar
    22    18    19   ar
    23    23    24   am
    24    24    25    1
    25    25    26    1
    26    26    27    1
    27    27    30    1
    28    30    31    1
    29    31    32    1
    30    27    28    1
    31    28    29    1
    32     6     1    1
    33    19    13   ar
    34    29    24    1
    35     9     7    1
    36    32    33    1
@<TRIPOS>MOLECULE
*****
 33 36 0 0 0
SMALL
GASTEIGER

@<TRIPOS>ATOM
      1 C          61.0145   88.5179   10.0024 C.3     1  UNL1        0.1232
      2 C          60.2553   89.6281    9.3383 C.3     1  UNL1        0.0216
      3 C          59.7061   89.4386    7.9554 C.3     1  UNL1        0.0030
      4 C          59.9162   88.1389    7.2366 C.3     1  UNL1        0.0178
      5 C          60.6754   87.0287    7.9007 C.3     1  UNL1        0.0796
      6 N          61.2245   87.2182    9.2836 N.3     1  UNL1       -0.1546
      7 C          60.8855   85.7290    7.1819 C.3     1  UNL1        0.0164
      8 C          61.8062   84.7315    6.5438 C.3     1  UNL1        0.0014
      9 C          60.3286   84.4754    6.5750 C.3     1  UNL1        0.0014
     10 S          61.9838   86.1080    9.9478 S.O2    1  UNL1        0.0633
     11 O          63.1440   86.3519    9.0290 O.2     1  UNL1       -0.1528
     12 O          60.8235   85.8642   10.8666 O.2     1  UNL1       -0.1528
     13 C          62.7430   84.9979   10.6119 C.ar    1  UNL1        0.1223
     14 C          63.5855   84.0686    9.7893 C.ar    1  UNL1        0.0208
     15 C          64.3448   82.9584   10.4536 C.ar    1  UNL1        0.0128
     16 C          64.2615   82.7776   11.9403 C.ar    1  UNL1        0.0578
     17 CL         65.0208   81.6675   12.6044 Cl      1  UNL1       -0.0822
     18 C          63.4190   83.7069   12.7628 C.ar    1  UNL1        0.0128
     19 C          62.6598   84.8170   12.0987 C.ar    1  UNL1        0.0208
     20 C          61.5636   88.7074   11.3854 C.3     1  UNL1        0.2276
     21 O          61.7117   90.0888   11.9508 O.3     1  UNL1       -0.4330
     22 O          63.1005   91.3821   10.1763 O.2     1  UNL1       -0.2262
     23 C          62.9055   90.9226   11.5909 C.2     1  UNL1        0.4050
     24 N          63.9044   91.2970   12.6454 N.am    1  UNL1       -0.2432
     25 C          63.7094   90.8375   14.0600 C.3     1  UNL1        0.1141
     26 C          64.7082   91.2118   15.1145 C.3     1  UNL1        0.0941
     27 N          65.9021   92.0457   14.7546 N.3     1  UNL1       -0.2676
     28 C          66.0971   92.5051   13.3401 C.3     1  UNL1        0.0941
     29 C          65.0982   92.1307   12.2855 C.3     1  UNL1        0.1141
     30 C          66.9010   92.4200   15.8092 C.3     1  UNL1        0.1043
     31 C          67.9582   93.4417   15.5119 C.3     1  UNL1        0.1544
     32 O          69.2220   93.0324   14.8153 O.3     1  UNL1       -0.3805
     33 H          69.7288   92.4365   15.3888 H       1  UNL1        0.2105
@<TRIPOS>BOND
     1    22    23    2
     2    23    21    1
     3    21    20    1
     4     1    20    1
     5     1     2    1
     6     2     3    1
     7     3     4    1
     8     4     5    1
     9     5     7    1
    10     7     8    1
    11     8     9    1
    12     5     6    1
    13     6    10    1
    14    10    11    2
    15    10    12    2
    16    10    13    1
    17    13    14   ar
    18    14    15   ar
    19    15    16   ar
    20    16    17    1
    21    16    18   ar
    22    18    19   ar
    23    23    24   am
    24    24    25    1
    25    25    26    1
    26    26    27    1
    27    27    30    1
    28    30    31    1
    29    31    32    1
    30    27    28    1
    31    28    29    1
    32     6     1    1
    33    19    13   ar
    34    29    24    1
    35     9     7    1
    36    32    33    1
@<TRIPOS>MOLECULE
*****
 33 36 0 0 0
SMALL
GASTEIGER

@<TRIPOS>ATOM
      1 C          63.5397   88.0578   13.5701 C.3     1  UNL1        0.1232
      2 C          64.4084   87.7393   14.7507 C.3     1  UNL1        0.0216
      3 C          64.8765   86.3328   14.9797 C.3     1  UNL1        0.0030
      4 C          64.4759   85.2447   14.0282 C.3     1  UNL1        0.0178
      5 C          63.6072   85.5631   12.8475 C.3     1  UNL1        0.0796
      6 N          63.1391   86.9697   12.6185 N.3     1  UNL1       -0.1546
      7 C          63.2066   84.4750   11.8959 C.3     1  UNL1        0.0164
      8 C          62.5054   83.1763   11.6286 C.3     1  UNL1        0.0014
      9 C          63.2140   83.8891   10.5151 C.3     1  UNL1        0.0014
     10 S          62.2703   87.2881   11.4378 S.O2    1  UNL1        0.0633
     11 O          63.3159   88.2326   10.9234 O.2     1  UNL1       -0.1528
     12 O          61.2248   86.3436   11.9523 O.2     1  UNL1       -0.1528
     13 C          61.4017   87.6066   10.2572 C.ar    1  UNL1        0.1223
     14 C          61.1012   89.0348    9.9107 C.ar    1  UNL1        0.0208
     15 C          60.2324   89.3533    8.7300 C.ar    1  UNL1        0.0128
     16 C          59.6643   88.2436    7.8959 C.ar    1  UNL1        0.0578
     17 CL         58.7956   88.5621    6.7153 Cl      1  UNL1       -0.0822
     18 C          59.9648   86.8155    8.2424 C.ar    1  UNL1        0.0128
     19 C          60.8335   86.4970    9.4230 C.ar    1  UNL1        0.0208
     20 C          63.0716   89.4644   13.3410 C.3     1  UNL1        0.2276
     21 O          63.1432   90.4690   14.4525 O.3     1  UNL1       -0.4330
     22 O          64.8979   91.7297   15.8954 O.2     1  UNL1       -0.2262
     23 C          64.3196   91.3943   14.5526 C.2     1  UNL1        0.4050
     24 N          64.9177   91.9841   13.3099 N.am    1  UNL1       -0.2432
     25 C          64.3394   91.6488   11.9671 C.3     1  UNL1        0.1141
     26 C          64.9375   92.2386   10.7244 C.3     1  UNL1        0.0941
     27 N          66.1139   93.1639   10.8245 N.3     1  UNL1       -0.2676
     28 C          66.6922   93.4992   12.1672 C.3     1  UNL1        0.0941
     29 C          66.0941   92.9093   13.4100 C.3     1  UNL1        0.1141
     30 C          66.7120   93.7537    9.5818 C.3     1  UNL1        0.1043
     31 C          68.1968   93.9405    9.4798 C.3     1  UNL1        0.1544
     32 O          69.1203   92.8082    9.8188 O.3     1  UNL1       -0.3805
     33 H          69.0470   92.6032   10.7641 H       1  UNL1        0.2105
@<TRIPOS>BOND
     1    22    23    2
     2    23    21    1
     3    21    20    1
     4     1    20    1
     5     1     2    1
     6     2     3    1
     7     3     4    1
     8     4     5    1
     9     5     7    1
    10     7     8    1
    11     8     9    1
    12     5     6    1
    13     6    10    1
    14    10    11    2
    15    10    12    2
    16    10    13    1
    17    13    14   ar
    18    14    15   ar
    19    15    16   ar
    20    16    17    1
    21    16    18   ar
    22    18    19   ar
    23    23    24   am
    24    24    25    1
    25    25    26    1
    26    26    27    1
    27    27    30    1
    28    30    31    1
    29    31    32    1
    30    27    28    1
    31    28    29    1
    32     6     1    1
    33    19    13   ar
    34    29    24    1
    35     9     7    1
    36    32    33    1
@<TRIPOS>MOLECULE
*****
 33 36 0 0 0
SMALL
GASTEIGER

@<TRIPOS>ATOM
      1 C          60.7942   89.2946   11.0190 C.3     1  UNL1        0.1232
      2 C          60.0976   90.3924   10.2710 C.3     1  UNL1        0.0216
      3 C          59.7103   90.1932    8.8356 C.3     1  UNL1        0.0030
      4 C          60.0195   88.8963    8.1483 C.3     1  UNL1        0.0178
      5 C          60.7162   87.7986    8.8964 C.3     1  UNL1        0.0796
      6 N          61.1035   87.9977   10.3317 N.3     1  UNL1       -0.1546
      7 C          61.0254   86.5016    8.2091 C.3     1  UNL1        0.0164
      8 C          60.5801   85.3286    7.3872 C.3     1  UNL1        0.0014
      9 C          62.0064   85.4284    7.8406 C.3     1  UNL1        0.0014
     10 S          61.8002   86.8999   11.0798 S.O2    1  UNL1        0.0633
     11 O          60.4883   86.4643   11.6622 O.2     1  UNL1       -0.1528
     12 O          63.1121   87.3355   10.4975 O.2     1  UNL1       -0.1528
     13 C          62.4968   85.8022   11.8279 C.ar    1  UNL1        0.1223
     14 C          63.2993   86.1223   13.0542 C.ar    1  UNL1        0.0208
     15 C          63.9959   85.0244   13.8023 C.ar    1  UNL1        0.0128
     16 C          63.8899   83.6066   13.3242 C.ar    1  UNL1        0.0578
     17 CL         64.5865   82.5089   14.0723 Cl      1  UNL1       -0.0822
     18 C          63.0875   83.2866   12.0980 C.ar    1  UNL1        0.0128
     19 C          62.3909   84.3843   11.3499 C.ar    1  UNL1        0.0208
     20 C          61.1816   89.4938   12.4544 C.3     1  UNL1        0.2276
     21 O          62.6231   89.6850   12.8226 O.3     1  UNL1       -0.4330
     22 O          62.1897   89.6092   15.3832 O.2     1  UNL1       -0.2262
     23 C          62.9925   90.1012   14.2156 C.2     1  UNL1        0.4050
     24 N          64.1648   91.0095   14.4409 N.am    1  UNL1       -0.2432
     25 C          64.9676   91.5016   13.2733 C.3     1  UNL1        0.1141
     26 C          66.1399   92.4098   13.4987 C.3     1  UNL1        0.0941
     27 N          66.5093   92.8261   14.8916 N.3     1  UNL1       -0.2676
     28 C          65.7065   92.3340   16.0592 C.3     1  UNL1        0.0941
     29 C          64.5342   91.4257   15.8339 C.3     1  UNL1        0.1141
     30 C          67.6816   93.7344   15.1170 C.3     1  UNL1        0.1043
     31 C          69.0535   93.1566   15.3014 C.3     1  UNL1        0.1544
     32 O          69.6716   92.3297   14.2132 O.3     1  UNL1       -0.3805
     33 H          69.1642   91.5106   14.1017 H       1  UNL1        0.2105
@<TRIPOS>BOND
     1    22    23    2
     2    23    21    1
     3    21    20    1
     4     1    20    1
     5     1     2    1
     6     2     3    1
     7     3     4    1
     8     4     5    1
     9     5     7    1
    10     7     8    1
    11     8     9    1
    12     5     6    1
    13     6    10    1
    14    10    11    2
    15    10    12    2
    16    10    13    1
    17    13    14   ar
    18    14    15   ar
    19    15    16   ar
    20    16    17    1
    21    16    18   ar
    22    18    19   ar
    23    23    24   am
    24    24    25    1
    25    25    26    1
    26    26    27    1
    27    27    30    1
    28    30    31    1
    29    31    32    1
    30    27    28    1
    31    28    29    1
    32     6     1    1
    33    19    13   ar
    34    29    24    1
    35     9     7    1
    36    32    33    1
@<TRIPOS>MOLECULE
*****
 33 36 0 0 0
SMALL
GASTEIGER

@<TRIPOS>ATOM
      1 C          61.6543   86.6178    9.3482 C.3     1  UNL1        0.1232
      2 C          60.7205   86.0161    8.3402 C.3     1  UNL1        0.0216
      3 C          59.3865   86.6511    8.0810 C.3     1  UNL1        0.0030
      4 C          58.9863   87.8876    8.8297 C.3     1  UNL1        0.0178
      5 C          59.9200   88.4893    9.8377 C.3     1  UNL1        0.0796
      6 N          61.2540   87.8544   10.0969 N.3     1  UNL1       -0.1546
      7 C          59.5197   89.7259   10.5865 C.3     1  UNL1        0.0164
      8 C          58.6661   90.3998   11.6194 C.3     1  UNL1        0.0014
      9 C          59.6801   91.1937   10.8504 C.3     1  UNL1        0.0014
     10 S          62.1878   88.4561   11.1050 S.O2    1  UNL1        0.0633
     11 O          61.5428   87.6429   12.1878 O.2     1  UNL1       -0.1528
     12 O          62.8329   89.2692   10.0221 O.2     1  UNL1       -0.1528
     13 C          63.1216   89.0577   12.1130 C.ar    1  UNL1        0.1223
     14 C          63.5447   90.4908   11.9818 C.ar    1  UNL1        0.0208
     15 C          64.4785   91.0924   12.9899 C.ar    1  UNL1        0.0128
     16 C          64.9892   90.2609   14.1290 C.ar    1  UNL1        0.0578
     17 CL         65.9229   90.8625   15.1370 Cl      1  UNL1       -0.0822
     18 C          64.5661   88.8278   14.2602 C.ar    1  UNL1        0.0128
     19 C          63.6324   88.2262   13.2522 C.ar    1  UNL1        0.0208
     20 C          62.9884   85.9829    9.6074 C.3     1  UNL1        0.2276
     21 O          63.1935   84.5250    9.3207 O.3     1  UNL1       -0.4330
     22 O          64.9367   82.6693    9.8387 O.2     1  UNL1       -0.2262
     23 C          63.9143   83.6598   10.3117 C.2     1  UNL1        0.4050
     24 N          63.6128   83.7852   11.7757 N.am    1  UNL1       -0.2432
     25 C          62.5905   84.7757   12.2488 C.3     1  UNL1        0.1141
     26 C          62.2889   84.9011   13.7127 C.3     1  UNL1        0.0941
     27 N          63.0097   84.0359   14.7038 N.3     1  UNL1       -0.2676
     28 C          64.0321   83.0454   14.2307 C.3     1  UNL1        0.0941
     29 C          64.3336   82.9201   12.7666 C.3     1  UNL1        0.1141
     30 C          62.7082   84.1613   16.1678 C.3     1  UNL1        0.1043
     31 C          62.6514   85.5164   16.8085 C.3     1  UNL1        0.1544
     32 O          61.3278   86.1860   17.0308 O.3     1  UNL1       -0.3805
     33 H          60.9229   86.3944   16.1743 H       1  UNL1        0.2105
@<TRIPOS>BOND
     1    22    23    2
     2    23    21    1
     3    21    20    1
     4     1    20    1
     5     1     2    1
     6     2     3    1
     7     3     4    1
     8     4     5    1
     9     5     7    1
    10     7     8    1
    11     8     9    1
    12     5     6    1
    13     6    10    1
    14    10    11    2
    15    10    12    2
    16    10    13    1
    17    13    14   ar
    18    14    15   ar
    19    15    16   ar
    20    16    17    1
    21    16    18   ar
    22    18    19   ar
    23    23    24   am
    24    24    25    1
    25    25    26    1
    26    26    27    1
    27    27    30    1
    28    30    31    1
    29    31    32    1
    30    27    28    1
    31    28    29    1
    32     6     1    1
    33    19    13   ar
    34    29    24    1
    35     9     7    1
    36    32    33    1
