@<TRIPOS>MOLECULE
*****
 19 21 0 0 0
SMALL
GASTEIGER

@<TRIPOS>ATOM
      1 N          68.7455   91.9758   14.0266 N.pl3   1  UNL1       -0.2476
      2 C          67.2814   91.9165   13.7061 C.2     1  UNL1        0.3334
      3 N          66.3164   91.3555   14.7081 N.2     1  UNL1       -0.0002
      4 C          64.8523   91.2962   14.3875 C.2     1  UNL1        0.3634
      5 N          64.3531   91.7979   13.0649 N.2     1  UNL1        0.0062
      6 C          65.3181   92.3589   12.0629 C.2     1  UNL1        0.3913
      7 N          65.1214   92.9241   10.6875 N.2     1  UNL1       -0.0102
      8 C          66.4640   93.3327   10.1580 C.2     1  UNL1        0.3354
      9 N          67.4905   93.0201   11.2061 N.2     1  UNL1       -0.2031
     10 C          66.7822   92.4182   12.3835 C.3     1  UNL1        0.3225
     11 H          69.0731   91.6466   14.8947 H       1  UNL1        0.2882
     12 H          69.3789   92.3440   13.3690 H       1  UNL1        0.2882
     13 C          63.8873   90.7352   15.3896 C.3     1  UNL1        0.1504
     14 C          63.8157   89.2538   15.6141 C.ar    1  UNL1       -0.0098
     15 C          63.1321   88.7123   16.8345 C.ar    1  UNL1       -0.0037
     16 C          63.0606   87.2309   17.0590 C.ar    1  UNL1       -0.0003
     17 C          63.6727   86.2910   16.0630 C.ar    1  UNL1       -0.0000
     18 C          64.3563   86.8325   14.8426 C.ar    1  UNL1       -0.0003
     19 C          64.4278   88.3139   14.6181 C.ar    1  UNL1       -0.0037
@<TRIPOS>BOND
     1     1     2    1
     2     2     3    2
     3     3     4    1
     4     4    13    1
     5    13    14    1
     6    14    15   ar
     7    15    16   ar
     8    16    17   ar
     9    17    18   ar
    10    18    19   ar
    11     4     5    2
    12     5     6    1
    13     6     7    2
    14     7     8    1
    15     8     9    2
    16     9    10    1
    17    10     2    1
    18    19    14   ar
    19    10     6    1
    20     1    11    1
    21     1    12    1
@<TRIPOS>MOLECULE
*****
 19 21 0 0 0
SMALL
GASTEIGER

@<TRIPOS>ATOM
      1 N          64.3633   84.9475   15.4986 N.pl3   1  UNL1       -0.2476
      2 C          63.7125   84.5750   14.1994 C.2     1  UNL1        0.3334
      3 N          63.3409   85.6427   13.2135 N.2     1  UNL1       -0.0002
      4 C          62.6902   85.2703   11.9145 C.2     1  UNL1        0.3634
      5 N          62.4109   83.8302   11.6012 N.2     1  UNL1        0.0062
      6 C          62.7825   82.7625   12.5870 C.2     1  UNL1        0.3913
      7 N          62.6322   81.2704   12.5549 N.2     1  UNL1       -0.0102
      8 C          63.1900   80.7207   13.8342 C.2     1  UNL1        0.3354
      9 N          63.6852   81.8730   14.6570 N.2     1  UNL1       -0.2031
     10 C          63.4333   83.1349   13.8862 C.3     1  UNL1        0.3225
     11 H          64.5466   85.8927   15.7042 H       1  UNL1        0.2882
     12 H          64.6072   84.2467   16.1456 H       1  UNL1        0.2882
     13 C          62.3185   86.3381   10.9285 C.3     1  UNL1        0.1504
     14 C          61.9564   85.9662    9.5212 C.ar    1  UNL1       -0.0098
     15 C          62.9669   85.2946    8.6392 C.ar    1  UNL1       -0.0037
     16 C          62.6047   84.9228    7.2319 C.ar    1  UNL1       -0.0003
     17 C          61.2320   85.2224    6.7066 C.ar    1  UNL1       -0.0000
     18 C          60.2216   85.8939    7.5886 C.ar    1  UNL1       -0.0003
     19 C          60.5837   86.2658    8.9959 C.ar    1  UNL1       -0.0037
@<TRIPOS>BOND
     1     1     2    1
     2     2     3    2
     3     3     4    1
     4     4    13    1
     5    13    14    1
     6    14    15   ar
     7    15    16   ar
     8    16    17   ar
     9    17    18   ar
    10    18    19   ar
    11     4     5    2
    12     5     6    1
    13     6     7    2
    14     7     8    1
    15     8     9    2
    16     9    10    1
    17    10     2    1
    18    19    14   ar
    19    10     6    1
    20     1    11    1
    21     1    12    1
@<TRIPOS>MOLECULE
*****
 19 21 0 0 0
SMALL
GASTEIGER

@<TRIPOS>ATOM
      1 N          61.2878   81.2257   14.3687 N.pl3   1  UNL1       -0.2476
      2 C          62.3517   82.2580   14.1398 C.2     1  UNL1        0.3334
      3 N          62.7095   83.2214   15.2324 N.2     1  UNL1       -0.0002
      4 C          63.7733   84.2537   15.0036 C.2     1  UNL1        0.3634
      5 N          64.4795   84.3227   13.6819 N.2     1  UNL1        0.0062
      6 C          64.1217   83.3594   12.5893 C.2     1  UNL1        0.3913
      7 N          64.6418   83.1874   11.1929 N.2     1  UNL1       -0.0102
      8 C          63.8994   82.0487   10.5588 C.2     1  UNL1        0.3354
      9 N          62.9204   81.5170   11.5632 N.2     1  UNL1       -0.2031
     10 C          63.0579   82.3270   12.8182 C.3     1  UNL1        0.3225
     11 H          60.8244   81.1804   15.2361 H       1  UNL1        0.2882
     12 H          61.0530   80.5934   13.6515 H       1  UNL1        0.2882
     13 C          64.1310   85.2171   16.0963 C.3     1  UNL1        0.1504
     14 C          63.9249   86.6892   15.8955 C.ar    1  UNL1       -0.0098
     15 C          63.1793   87.4891   16.9223 C.ar    1  UNL1       -0.0037
     16 C          62.9732   88.9612   16.7215 C.ar    1  UNL1       -0.0003
     17 C          63.5126   89.6335   15.4939 C.ar    1  UNL1       -0.0000
     18 C          64.2581   88.8336   14.4671 C.ar    1  UNL1       -0.0003
     19 C          64.4643   87.3615   14.6679 C.ar    1  UNL1       -0.0037
@<TRIPOS>BOND
     1     1     2    1
     2     2     3    2
     3     3     4    1
     4     4    13    1
     5    13    14    1
     6    14    15   ar
     7    15    16   ar
     8    16    17   ar
     9    17    18   ar
    10    18    19   ar
    11     4     5    2
    12     5     6    1
    13     6     7    2
    14     7     8    1
    15     8     9    2
    16     9    10    1
    17    10     2    1
    18    19    14   ar
    19    10     6    1
    20     1    11    1
    21     1    12    1
@<TRIPOS>MOLECULE
*****
 19 21 0 0 0
SMALL
GASTEIGER

@<TRIPOS>ATOM
      1 N          62.3834   84.7674   11.2371 N.pl3   1  UNL1       -0.2476
      2 C          62.7509   84.2423   12.5933 C.2     1  UNL1        0.3334
      3 N          63.1069   85.1954   13.6954 N.2     1  UNL1       -0.0002
      4 C          63.4743   84.6703   15.0515 C.2     1  UNL1        0.3634
      5 N          63.4857   83.1919   15.3056 N.2     1  UNL1        0.0062
      6 C          63.1297   82.2388   14.2034 C.2     1  UNL1        0.3913
      7 N          63.0540   80.7414   14.1568 N.2     1  UNL1       -0.0102
      8 C          62.6398   80.3412   12.7718 C.2     1  UNL1        0.3354
      9 N          62.4595   81.5912   11.9625 N.2     1  UNL1       -0.2031
     10 C          62.7623   82.7640   12.8473 C.3     1  UNL1        0.3225
     11 H          62.3760   85.7377   11.0704 H       1  UNL1        0.2882
     12 H          62.1498   84.1419   10.5137 H       1  UNL1        0.2882
     13 C          63.8303   85.6234   16.1538 C.3     1  UNL1        0.1504
     14 C          63.7873   87.1027   15.9091 C.ar    1  UNL1       -0.0098
     15 C          63.0903   88.0043   16.8844 C.ar    1  UNL1       -0.0037
     16 C          63.0473   89.4836   16.6398 C.ar    1  UNL1       -0.0003
     17 C          63.7013   90.0613   15.4198 C.ar    1  UNL1       -0.0000
     18 C          64.3984   89.1598   14.4445 C.ar    1  UNL1       -0.0003
     19 C          64.4414   87.6805   14.6891 C.ar    1  UNL1       -0.0037
@<TRIPOS>BOND
     1     1     2    1
     2     2     3    2
     3     3     4    1
     4     4    13    1
     5    13    14    1
     6    14    15   ar
     7    15    16   ar
     8    16    17   ar
     9    17    18   ar
    10    18    19   ar
    11     4     5    2
    12     5     6    1
    13     6     7    2
    14     7     8    1
    15     8     9    2
    16     9    10    1
    17    10     2    1
    18    19    14   ar
    19    10     6    1
    20     1    11    1
    21     1    12    1
@<TRIPOS>MOLECULE
*****
 19 21 0 0 0
SMALL
GASTEIGER

@<TRIPOS>ATOM
      1 N          62.3788   83.6729   16.0324 N.pl3   1  UNL1       -0.2476
      2 C          62.4708   83.6341   14.5357 C.2     1  UNL1        0.3334
      3 N          62.4899   84.9130   13.7521 N.2     1  UNL1       -0.0002
      4 C          62.5820   84.8742   12.2555 C.2     1  UNL1        0.3634
      5 N          62.6550   83.5566   11.5424 N.2     1  UNL1        0.0062
      6 C          62.6359   82.2777   12.3260 C.2     1  UNL1        0.3913
      7 N          62.6939   80.8400   11.9022 N.2     1  UNL1       -0.0102
      8 C          62.6377   79.9902   13.1370 C.2     1  UNL1        0.3354
      9 N          62.5449   80.9027   14.3239 N.2     1  UNL1       -0.2031
     10 C          62.5438   82.3165   13.8227 C.3     1  UNL1        0.3225
     11 H          62.3309   84.5377   16.5004 H       1  UNL1        0.2882
     12 H          62.3662   82.8335   16.5467 H       1  UNL1        0.2882
     13 C          62.6011   86.1532   11.4718 C.3     1  UNL1        0.1504
     14 C          61.7927   86.2743   10.2141 C.ar    1  UNL1       -0.0098
     15 C          60.4844   87.0079   10.2312 C.ar    1  UNL1       -0.0037
     16 C          59.6760   87.1290    8.9735 C.ar    1  UNL1       -0.0003
     17 C          60.1759   86.5165    7.6987 C.ar    1  UNL1       -0.0000
     18 C          61.4841   85.7829    7.6817 C.ar    1  UNL1       -0.0003
     19 C          62.2925   85.6618    8.9394 C.ar    1  UNL1       -0.0037
@<TRIPOS>BOND
     1     1     2    1
     2     2     3    2
     3     3     4    1
     4     4    13    1
     5    13    14    1
     6    14    15   ar
     7    15    16   ar
     8    16    17   ar
     9    17    18   ar
    10    18    19   ar
    11     4     5    2
    12     5     6    1
    13     6     7    2
    14     7     8    1
    15     8     9    2
    16     9    10    1
    17    10     2    1
    18    19    14   ar
    19    10     6    1
    20     1    11    1
    21     1    12    1
@<TRIPOS>MOLECULE
*****
 19 21 0 0 0
SMALL
GASTEIGER

@<TRIPOS>ATOM
      1 N          61.8839   90.4447   10.1549 N.pl3   1  UNL1       -0.2476
      2 C          61.6631   88.9610   10.1520 C.2     1  UNL1        0.3334
      3 N          62.4025   88.0908   11.1247 N.2     1  UNL1       -0.0002
      4 C          62.1817   86.6072   11.1218 C.2     1  UNL1        0.3634
      5 N          61.2214   85.9937   10.1463 N.2     1  UNL1        0.0062
      6 C          60.4821   86.8639    9.1737 C.2     1  UNL1        0.3913
      7 N          59.4806   86.5463    8.1031 N.2     1  UNL1       -0.0102
      8 C          59.0825   87.8337    7.4442 C.2     1  UNL1        0.3354
      9 N          59.8379   88.9469    8.1077 N.2     1  UNL1       -0.2031
     10 C          60.7029   88.3475    9.1765 C.3     1  UNL1        0.3225
     11 H          62.5141   90.8473   10.7952 H       1  UNL1        0.2882
     12 H          61.3986   91.0158    9.5165 H       1  UNL1        0.2882
     13 C          62.9211   85.7370   12.0946 C.3     1  UNL1        0.1504
     14 C          63.0220   84.2600   11.8531 C.ar    1  UNL1       -0.0098
     15 C          63.7580   83.7449   10.6519 C.ar    1  UNL1       -0.0037
     16 C          63.8588   82.2679   10.4105 C.ar    1  UNL1       -0.0003
     17 C          63.2237   81.3060   11.3703 C.ar    1  UNL1       -0.0000
     18 C          62.4877   81.8211   12.5715 C.ar    1  UNL1       -0.0003
     19 C          62.3868   83.2981   12.8129 C.ar    1  UNL1       -0.0037
@<TRIPOS>BOND
     1     1     2    1
     2     2     3    2
     3     3     4    1
     4     4    13    1
     5    13    14    1
     6    14    15   ar
     7    15    16   ar
     8    16    17   ar
     9    17    18   ar
    10    18    19   ar
    11     4     5    2
    12     5     6    1
    13     6     7    2
    14     7     8    1
    15     8     9    2
    16     9    10    1
    17    10     2    1
    18    19    14   ar
    19    10     6    1
    20     1    11    1
    21     1    12    1
@<TRIPOS>MOLECULE
*****
 19 21 0 0 0
SMALL
GASTEIGER

@<TRIPOS>ATOM
      1 N          63.8721   88.3554   14.3889 N.pl3   1  UNL1       -0.2476
      2 C          63.8644   89.4217   13.3340 C.2     1  UNL1        0.3334
      3 N          64.7496   90.6242   13.4766 N.2     1  UNL1       -0.0002
      4 C          64.7419   91.6905   12.4217 C.2     1  UNL1        0.3634
      5 N          63.8489   91.5544   11.2241 N.2     1  UNL1        0.0062
      6 C          62.9637   90.3519   11.0815 C.2     1  UNL1        0.3913
      7 N          61.9849   89.9464   10.0197 N.2     1  UNL1       -0.0102
      8 C          61.3877   88.6295   10.4184 C.2     1  UNL1        0.3354
      9 N          61.9974   88.2210   11.7266 N.2     1  UNL1       -0.2031
     10 C          62.9714   89.2856   12.1365 C.3     1  UNL1        0.3225
     11 H          64.4582   88.4448   15.1749 H       1  UNL1        0.2882
     12 H          63.2911   87.5662   14.2953 H       1  UNL1        0.2882
     13 C          65.6272   92.8931   12.5644 C.3     1  UNL1        0.1504
     14 C          66.3845   93.4118   11.3780 C.ar    1  UNL1       -0.0098
     15 C          66.2601   94.8527   10.9804 C.ar    1  UNL1       -0.0037
     16 C          67.0174   95.3715    9.7940 C.ar    1  UNL1       -0.0003
     17 C          67.8991   94.4493    9.0053 C.ar    1  UNL1       -0.0000
     18 C          68.0235   93.0083    9.4030 C.ar    1  UNL1       -0.0003
     19 C          67.2662   92.4896   10.5893 C.ar    1  UNL1       -0.0037
@<TRIPOS>BOND
     1     1     2    1
     2     2     3    2
     3     3     4    1
     4     4    13    1
     5    13    14    1
     6    14    15   ar
     7    15    16   ar
     8    16    17   ar
     9    17    18   ar
    10    18    19   ar
    11     4     5    2
    12     5     6    1
    13     6     7    2
    14     7     8    1
    15     8     9    2
    16     9    10    1
    17    10     2    1
    18    19    14   ar
    19    10     6    1
    20     1    11    1
    21     1    12    1
@<TRIPOS>MOLECULE
*****
 19 21 0 0 0
SMALL
GASTEIGER

@<TRIPOS>ATOM
      1 N          59.5970   86.8714    8.0161 N.pl3   1  UNL1       -0.2476
      2 C          60.5277   86.8882    9.1923 C.2     1  UNL1        0.3334
      3 N          61.3734   85.6874    9.4968 N.2     1  UNL1       -0.0002
      4 C          62.3040   85.7042   10.6729 C.2     1  UNL1        0.3634
      5 N          62.3890   86.9219   11.5448 N.2     1  UNL1        0.0062
      6 C          61.5433   88.1227   11.2404 C.2     1  UNL1        0.3913
      7 N          61.4132   89.4559   11.9154 N.2     1  UNL1       -0.0102
      8 C          60.4021   90.2630   11.1564 C.2     1  UNL1        0.3354
      9 N          59.9073   89.4287   10.0122 N.2     1  UNL1       -0.2031
     10 C          60.6126   88.1059   10.0641 C.3     1  UNL1        0.3225
     11 H          59.5412   86.0722    7.4439 H       1  UNL1        0.2882
     12 H          59.0419   87.6596    7.8162 H       1  UNL1        0.2882
     13 C          63.1498   84.5033   10.9774 C.3     1  UNL1        0.1504
     14 C          62.7916   83.6048   12.1239 C.ar    1  UNL1       -0.0098
     15 C          62.7196   84.1582   13.5163 C.ar    1  UNL1       -0.0037
     16 C          62.3614   83.2598   14.6628 C.ar    1  UNL1       -0.0003
     17 C          62.0752   81.8080   14.4170 C.ar    1  UNL1       -0.0000
     18 C          62.1472   81.2547   13.0247 C.ar    1  UNL1       -0.0003
     19 C          62.5054   82.1531   11.8781 C.ar    1  UNL1       -0.0037
@<TRIPOS>BOND
     1     1     2    1
     2     2     3    2
     3     3     4    1
     4     4    13    1
     5    13    14    1
     6    14    15   ar
     7    15    16   ar
     8    16    17   ar
     9    17    18   ar
    10    18    19   ar
    11     4     5    2
    12     5     6    1
    13     6     7    2
    14     7     8    1
    15     8     9    2
    16     9    10    1
    17    10     2    1
    18    19    14   ar
    19    10     6    1
    20     1    11    1
    21     1    12    1
@<TRIPOS>MOLECULE
*****
 19 21 0 0 0
SMALL
GASTEIGER

@<TRIPOS>ATOM
      1 N          63.5844   85.6019   15.1301 N.pl3   1  UNL1       -0.2476
      2 C          63.2428   85.0232   13.7891 C.2     1  UNL1        0.3334
      3 N          62.8447   85.9282   12.6610 N.2     1  UNL1       -0.0002
      4 C          62.5031   85.3496   11.3201 C.2     1  UNL1        0.3634
      5 N          62.5596   83.8658   11.1070 N.2     1  UNL1        0.0062
      6 C          62.9578   82.9608   12.2350 C.2     1  UNL1        0.3913
      7 N          63.1019   81.4703   12.3229 N.2     1  UNL1       -0.0102
      8 C          63.5325   81.1279   13.7184 C.2     1  UNL1        0.3354
      9 N          63.6546   82.4067   14.4928 N.2     1  UNL1       -0.2031
     10 C          63.2994   83.5395   13.5760 C.3     1  UNL1        0.3225
     11 H          63.5473   86.5757   15.2699 H       1  UNL1        0.2882
     12 H          63.8458   85.0079   15.8705 H       1  UNL1        0.2882
     13 C          62.1049   86.2546   10.1920 C.3     1  UNL1        0.1504
     14 C          61.6182   87.6437   10.4810 C.ar    1  UNL1       -0.0098
     15 C          62.4872   88.8243   10.1630 C.ar    1  UNL1       -0.0037
     16 C          62.0005   90.2134   10.4520 C.ar    1  UNL1       -0.0003
     17 C          60.6447   90.4219   11.0589 C.ar    1  UNL1       -0.0000
     18 C          59.7757   89.2414   11.3769 C.ar    1  UNL1       -0.0003
     19 C          60.2625   87.8523   11.0879 C.ar    1  UNL1       -0.0037
@<TRIPOS>BOND
     1     1     2    1
     2     2     3    2
     3     3     4    1
     4     4    13    1
     5    13    14    1
     6    14    15   ar
     7    15    16   ar
     8    16    17   ar
     9    17    18   ar
    10    18    19   ar
    11     4     5    2
    12     5     6    1
    13     6     7    2
    14     7     8    1
    15     8     9    2
    16     9    10    1
    17    10     2    1
    18    19    14   ar
    19    10     6    1
    20     1    11    1
    21     1    12    1
