@<TRIPOS>MOLECULE
*****
 44 48 0 0 0
SMALL
GASTEIGER

@<TRIPOS>ATOM
      1 N          61.6080   88.5034   10.4921 N.am    1  UNL1       -0.2733
      2 C          62.3248   87.6999   11.5365 C.2     1  UNL1        0.2462
      3 O          63.0569   88.3949   12.6460 O.2     1  UNL1       -0.2730
      4 C          62.3093   86.2014   11.4714 C.3     1  UNL1        0.1759
      5 N          61.5772   85.5064   10.3619 N.am    1  UNL1       -0.2951
      6 C          60.8605   86.3099    9.3176 C.2     1  UNL1        0.2390
      7 O          60.1283   85.6149    8.2081 O.2     1  UNL1       -0.2734
      8 C          60.8759   87.8084    9.3827 C.3     1  UNL1        0.1314
      9 C          60.8913   89.3069    9.4478 C.3     1  UNL1        0.0445
     10 C          60.1746   90.1104    8.4034 C.3     1  UNL1        0.0745
     11 N          59.4424   89.4154    7.2940 N.3     1  UNL1       -0.2688
     12 C          59.4270   87.9169    7.2289 C.3     1  UNL1        0.0745
     13 C          60.1437   87.1134    8.2732 C.3     1  UNL1        0.0445
     14 H          61.5671   84.5229   10.3192 H       1  UNL1        0.1499
     15 C          63.0261   85.3979   12.5158 C.3     1  UNL1        0.1372
     16 O          63.8179   86.0923   13.5839 O.3     1  UNL1       -0.3823
     17 H          63.7627   87.0521   13.4548 H       1  UNL1        0.2104
     18 C          62.9510   83.9000   12.4921 C.3     1  UNL1        0.0291
     19 C          62.3265   83.1620   13.6390 C.3     1  UNL1        0.0025
     20 C          62.2514   81.6641   13.6152 C.3     1  UNL1        0.0001
     21 C          62.8008   80.9041   12.4445 C.3     1  UNL1        0.0000
     22 C          63.4254   81.6420   11.2976 C.3     1  UNL1        0.0001
     23 C          63.5004   83.1400   11.3214 C.3     1  UNL1        0.0025
     24 C          61.6234   90.0019   10.5573 C.3     1  UNL1        0.0938
     25 C          62.8523   90.7579   10.1470 C.3     1  UNL1        0.0215
     26 C          64.8338   92.2862   10.8455 C.3     1  UNL1        0.0001
     27 C          63.8242   91.2308   11.1871 C.3     1  UNL1        0.0018
     28 C          58.7257   90.2189    6.2496 C.3     1  UNL1        0.0992
     29 C          59.5076   90.9602    5.2061 C.ar    1  UNL1       -0.0059
     30 C          58.8497   92.0445    4.4053 C.ar    1  UNL1        0.0002
     31 C          59.6317   92.7859    3.3617 C.ar    1  UNL1        0.0372
     32 C          61.0716   92.4428    3.1190 C.ar    1  UNL1        0.1453
     33 C          61.7296   91.3585    3.9198 C.ar    1  UNL1        0.0372
     34 C          60.9476   90.6172    4.9633 C.ar    1  UNL1        0.0002
     35 O          61.8536   93.1841    2.0755 O.3     1  UNL1       -0.4535
     36 C          61.2894   93.3552    0.6962 C.ar    1  UNL1        0.1453
     37 C          61.6716   94.5490   -0.1276 C.ar    1  UNL1        0.0375
     38 C          61.1074   94.7202   -1.5069 C.ar    1  UNL1        0.0043
     39 C          60.1611   93.6975   -2.0624 C.ar    1  UNL1        0.0142
     40 C          59.7789   92.5036   -1.2385 C.ar    1  UNL1        0.0043
     41 C          60.3431   92.3325    0.1408 C.ar    1  UNL1        0.0375
     42 C          59.5969   93.8686   -3.4417 C.2     1  UNL1        0.0729
     43 O          60.2541   94.8074   -4.4096 O.co2   1  UNL1       -0.5446
     44 O          58.3756   93.1010   -3.8530 O.co2   1  UNL1       -0.5446
@<TRIPOS>UNITY_ATOM_ATTR
43 1
charge -1
@<TRIPOS>BOND
     1    26    27    1
     2    27    25    1
     3    25    24    1
     4    24     1    1
     5     1     2   am
     6     2     3    2
     7     2     4    1
     8     4    15    1
     9    15    16    1
    10    15    18    1
    11    18    19    1
    12    19    20    1
    13    20    21    1
    14    21    22    1
    15    22    23    1
    16     4     5    1
    17     5     6   am
    18     6     7    2
    19     6     8    1
    20     8     9    1
    21     9    10    1
    22    10    11    1
    23    11    28    1
    24    28    29    1
    25    29    30   ar
    26    30    31   ar
    27    31    32   ar
    28    32    35    1
    29    35    36    1
    30    36    37   ar
    31    37    38   ar
    32    38    39   ar
    33    39    42    1
    34    42    43   ar
    35    42    44   ar
    36    39    40   ar
    37    40    41   ar
    38    32    33   ar
    39    33    34   ar
    40    11    12    1
    41    12    13    1
    42     8     1    1
    43    34    29   ar
    44    23    18    1
    45    13     8    1
    46    41    36   ar
    47    16    17    1
    48     5    14    1
@<TRIPOS>MOLECULE
*****
 44 48 0 0 0
SMALL
GASTEIGER

@<TRIPOS>ATOM
      1 N          62.1727   87.3953   11.1993 N.am    1  UNL1       -0.2733
      2 C          63.0132   87.3838   12.4417 C.2     1  UNL1        0.2462
      3 O          63.4217   86.0790   13.0587 O.2     1  UNL1       -0.2730
      4 C          63.4452   88.6769   13.0670 C.3     1  UNL1        0.1759
      5 N          63.0367   89.9817   12.4500 N.am    1  UNL1       -0.2951
      6 C          62.1962   89.9933   11.2077 C.2     1  UNL1        0.2390
      7 O          61.7877   91.2981   10.5906 O.2     1  UNL1       -0.2734
      8 C          61.7642   88.7001   10.5823 C.3     1  UNL1        0.1314
      9 C          61.3323   87.4069    9.9570 C.3     1  UNL1        0.0445
     10 C          60.4918   87.4185    8.7146 C.3     1  UNL1        0.0745
     11 N          60.0833   88.7233    8.0976 N.3     1  UNL1       -0.2688
     12 C          60.5153   90.0165    8.7229 C.3     1  UNL1        0.0745
     13 C          61.3557   90.0049    9.9653 C.3     1  UNL1        0.0445
     14 H          63.3202   90.8305   12.8604 H       1  UNL1        0.1499
     15 C          64.2857   88.6654   14.3094 C.3     1  UNL1        0.1372
     16 O          64.7061   87.3606   14.9184 O.3     1  UNL1       -0.3823
     17 H          64.3530   86.6282   14.3894 H       1  UNL1        0.2104
     18 C          64.7058   89.9586   14.9428 C.3     1  UNL1        0.0291
     19 C          65.9564   90.6475   14.4830 C.3     1  UNL1        0.0025
     20 C          66.3764   91.9406   15.1163 C.3     1  UNL1        0.0001
     21 C          65.5459   92.5450   16.2096 C.3     1  UNL1        0.0000
     22 C          64.2953   91.8561   16.6694 C.3     1  UNL1        0.0001
     23 C          63.8752   90.5628   16.0359 C.3     1  UNL1        0.0025
     24 C          61.7407   86.1021   10.5740 C.3     1  UNL1        0.0938
     25 C          62.7636   85.1716    9.9927 C.3     1  UNL1        0.0215
     26 C          64.1427   82.9742   10.1311 C.3     1  UNL1        0.0001
     27 C          63.1240   83.9075   10.7151 C.3     1  UNL1        0.0018
     28 C          59.2428   88.7348    6.8552 C.3     1  UNL1        0.0992
     29 C          59.2656   89.9271    5.9453 C.ar    1  UNL1       -0.0059
     30 C          60.5627   90.3957    5.3554 C.ar    1  UNL1        0.0002
     31 C          60.5854   91.5880    4.4455 C.ar    1  UNL1        0.0372
     32 C          59.3111   92.3118    4.1256 C.ar    1  UNL1        0.1453
     33 C          58.0141   91.8432    4.7155 C.ar    1  UNL1        0.0372
     34 C          57.9913   90.6509    5.6254 C.ar    1  UNL1        0.0002
     35 O          59.3339   93.5040    3.2157 O.3     1  UNL1       -0.4535
     36 C          60.1165   93.4568    1.9369 C.ar    1  UNL1        0.1453
     37 C          61.4798   94.0785    1.8685 C.ar    1  UNL1        0.0375
     38 C          62.2624   94.0312    0.5897 C.ar    1  UNL1        0.0043
     39 C          61.6816   93.3622   -0.6207 C.ar    1  UNL1        0.0142
     40 C          60.3182   92.7404   -0.5524 C.ar    1  UNL1        0.0043
     41 C          59.5356   92.7877    0.7265 C.ar    1  UNL1        0.0375
     42 C          62.4641   93.3149   -1.8995 C.2     1  UNL1        0.0729
     43 O          63.9583   93.1875   -1.8602 O.co2   1  UNL1       -0.5446
     44 O          61.7527   93.3950   -3.2176 O.co2   1  UNL1       -0.5446
@<TRIPOS>UNITY_ATOM_ATTR
43 1
charge -1
@<TRIPOS>BOND
     1    26    27    1
     2    27    25    1
     3    25    24    1
     4    24     1    1
     5     1     2   am
     6     2     3    2
     7     2     4    1
     8     4    15    1
     9    15    16    1
    10    15    18    1
    11    18    19    1
    12    19    20    1
    13    20    21    1
    14    21    22    1
    15    22    23    1
    16     4     5    1
    17     5     6   am
    18     6     7    2
    19     6     8    1
    20     8     9    1
    21     9    10    1
    22    10    11    1
    23    11    28    1
    24    28    29    1
    25    29    30   ar
    26    30    31   ar
    27    31    32   ar
    28    32    35    1
    29    35    36    1
    30    36    37   ar
    31    37    38   ar
    32    38    39   ar
    33    39    42    1
    34    42    43   ar
    35    42    44   ar
    36    39    40   ar
    37    40    41   ar
    38    32    33   ar
    39    33    34   ar
    40    11    12    1
    41    12    13    1
    42     8     1    1
    43    34    29   ar
    44    23    18    1
    45    13     8    1
    46    41    36   ar
    47    16    17    1
    48     5    14    1
@<TRIPOS>MOLECULE
*****
 44 48 0 0 0
SMALL
GASTEIGER

@<TRIPOS>ATOM
      1 N          61.7069   85.8203    9.1683 N.am    1  UNL1       -0.2733
      2 C          62.5711   85.0715   10.1391 C.2     1  UNL1        0.2462
      3 O          63.2308   83.7904    9.7225 O.2     1  UNL1       -0.2730
      4 C          62.7755   85.6037   11.5265 C.3     1  UNL1        0.1759
      5 N          62.1157   86.8848   11.9431 N.am    1  UNL1       -0.2951
      6 C          61.2516   87.6337   10.9724 C.2     1  UNL1        0.2390
      7 O          60.5918   88.9147   11.3890 O.2     1  UNL1       -0.2734
      8 C          61.0471   87.1014    9.5849 C.3     1  UNL1        0.1314
      9 C          60.8427   86.5692    8.1975 C.3     1  UNL1        0.0445
     10 C          59.9786   87.3180    7.2267 C.3     1  UNL1        0.0745
     11 N          59.3189   88.5991    7.6433 N.3     1  UNL1       -0.2688
     12 C          59.5233   89.1313    9.0307 C.3     1  UNL1        0.0745
     13 C          60.3874   88.3825   10.0015 C.3     1  UNL1        0.0445
     14 H          62.2499   87.2341   12.8537 H       1  UNL1        0.1499
     15 C          63.6396   84.8549   12.4974 C.3     1  UNL1        0.1372
     16 O          64.6234   83.8391   11.9970 O.3     1  UNL1       -0.3823
     17 H          64.5733   83.7897   11.0296 H       1  UNL1        0.2104
     18 C          63.5201   85.1219   13.9686 C.3     1  UNL1        0.0291
     19 C          64.3276   86.2168   14.6002 C.3     1  UNL1        0.0025
     20 C          64.2080   86.4838   16.0714 C.3     1  UNL1        0.0001
     21 C          63.2808   85.6558   16.9110 C.3     1  UNL1        0.0000
     22 C          62.4733   84.5609   16.2793 C.3     1  UNL1        0.0001
     23 C          62.5929   84.2939   14.8081 C.3     1  UNL1        0.0025
     24 C          61.5025   85.2881    7.7809 C.3     1  UNL1        0.0938
     25 C          62.6816   84.8465    6.9657 C.3     1  UNL1        0.0215
     26 C          61.2534   83.7888    5.0707 C.3     1  UNL1        0.0001
     27 C          62.5021   84.4876    5.5204 C.3     1  UNL1        0.0018
     28 C          58.4547   89.3479    6.6725 C.3     1  UNL1        0.0992
     29 C          59.0726   90.3272    5.7190 C.ar    1  UNL1       -0.0059
     30 C          58.2109   91.3300    5.0106 C.ar    1  UNL1        0.0002
     31 C          58.8289   92.3093    4.0571 C.ar    1  UNL1        0.0372
     32 C          60.3085   92.2858    3.8120 C.ar    1  UNL1        0.1453
     33 C          61.1702   91.2830    4.5204 C.ar    1  UNL1        0.0372
     34 C          60.5523   90.3037    5.4739 C.ar    1  UNL1        0.0002
     35 O          60.9264   93.2651    2.8586 O.3     1  UNL1       -0.4535
     36 C          60.3486   93.4417    1.4856 C.ar    1  UNL1        0.1453
     37 C          60.3600   92.2988    0.5143 C.ar    1  UNL1        0.0375
     38 C          59.7822   92.4754   -0.8586 C.ar    1  UNL1        0.0043
     39 C          59.1930   93.7950   -1.2602 C.ar    1  UNL1        0.0142
     40 C          59.1815   94.9381   -0.2889 C.ar    1  UNL1        0.0043
     41 C          59.7593   94.7614    1.0840 C.ar    1  UNL1        0.0375
     42 C          58.6152   93.9717   -2.6332 C.2     1  UNL1        0.0729
     43 O          59.5251   94.1224   -3.8162 O.co2   1  UNL1       -0.5446
     44 O          57.1275   93.9976   -2.8232 O.co2   1  UNL1       -0.5446
@<TRIPOS>UNITY_ATOM_ATTR
43 1
charge -1
@<TRIPOS>BOND
     1    26    27    1
     2    27    25    1
     3    25    24    1
     4    24     1    1
     5     1     2   am
     6     2     3    2
     7     2     4    1
     8     4    15    1
     9    15    16    1
    10    15    18    1
    11    18    19    1
    12    19    20    1
    13    20    21    1
    14    21    22    1
    15    22    23    1
    16     4     5    1
    17     5     6   am
    18     6     7    2
    19     6     8    1
    20     8     9    1
    21     9    10    1
    22    10    11    1
    23    11    28    1
    24    28    29    1
    25    29    30   ar
    26    30    31   ar
    27    31    32   ar
    28    32    35    1
    29    35    36    1
    30    36    37   ar
    31    37    38   ar
    32    38    39   ar
    33    39    42    1
    34    42    43   ar
    35    42    44   ar
    36    39    40   ar
    37    40    41   ar
    38    32    33   ar
    39    33    34   ar
    40    11    12    1
    41    12    13    1
    42     8     1    1
    43    34    29   ar
    44    23    18    1
    45    13     8    1
    46    41    36   ar
    47    16    17    1
    48     5    14    1
