@<TRIPOS>MOLECULE
*****
 37 40 0 0 0
SMALL
GASTEIGER

@<TRIPOS>ATOM
      1 N          63.0825   90.8775   11.8316 N.am    1  UNL1       -0.2438
      2 C          63.5961   91.4681   10.5521 C.3     1  UNL1        0.1009
      3 C          64.7882   92.3783   10.5714 C.3     1  UNL1        0.0662
      4 C          65.4667   92.6980   11.8704 C.3     1  UNL1        0.1600
      5 O          64.9531   92.1074   13.1501 O.3     1  UNL1       -0.4374
      6 C          63.7610   91.1972   13.1307 C.2     1  UNL1        0.4051
      7 O          63.2473   90.6067   14.4103 O.2     1  UNL1       -0.2262
      8 C          66.3187   93.4958   10.9283 C.ar    1  UNL1        0.0138
      9 C          67.2307   92.7949    9.9655 C.ar    1  UNL1       -0.0010
     10 C          68.0828   93.5927    9.0234 C.ar    1  UNL1       -0.0002
     11 C          68.0228   95.0914    9.0441 C.ar    1  UNL1       -0.0000
     12 C          67.1108   95.7922   10.0069 C.ar    1  UNL1       -0.0002
     13 C          66.2587   94.9944   10.9491 C.ar    1  UNL1       -0.0010
     14 C          60.5063   90.5430   11.8643 C.3     1  UNL1        0.0265
     15 C          61.8904   89.9673   11.8123 C.3     1  UNL1        0.1011
     16 C          62.0825   88.4813   11.7408 C.ar    1  UNL1       -0.0042
     17 C          61.2560   87.6629   10.7936 C.ar    1  UNL1       -0.0027
     18 C          61.4481   86.1770   10.7222 C.ar    1  UNL1       -0.0002
     19 C          62.4667   85.5095   11.5980 C.ar    1  UNL1        0.0014
     20 C          63.2931   86.3279   12.5452 C.ar    1  UNL1       -0.0002
     21 C          63.1010   87.8138   12.6166 C.ar    1  UNL1       -0.0027
     22 C          62.6588   84.0235   11.5265 C.ar    1  UNL1        0.0176
     23 C          63.3176   83.4093   10.3271 C.ar    1  UNL1        0.0064
     24 C          63.5097   81.9233   10.2557 C.ar    1  UNL1        0.0609
     25 C          63.0429   81.0516   11.3837 C.ar    1  UNL1        0.2649
     26 O          63.2349   79.5657   11.3123 O.2     1  UNL1       -0.2668
     27 N          62.3840   81.6660   12.5831 N.ar    1  UNL1       -0.2393
     28 C          62.1920   83.1519   12.6545 C.ar    1  UNL1        0.0833
     29 C          61.9173   80.7943   13.7111 C.3     1  UNL1        0.4163
     30 F          62.8122   79.7156   14.2452 F       1  UNL1       -0.1724
     31 F          60.5555   81.0015   14.3050 F       1  UNL1       -0.1724
     32 C          66.4411   93.2948   12.8423 C.3     1  UNL1        0.0714
     33 C          67.0894   92.4290   13.8815 C.3     1  UNL1        0.0922
     34 C          66.3604   93.1762   14.9588 C.3     1  UNL1        0.0294
     35 C          67.8184   91.6819   12.8044 C.3     1  UNL1        0.0294
     36 O          67.7377   91.5633   14.9209 O.3     1  UNL1       -0.3866
     37 H          67.4329   91.8322   15.8016 H       1  UNL1        0.2102
@<TRIPOS>BOND
     1    15    14    1
     2    15    16    1
     3    16    17   ar
     4    17    18   ar
     5    18    19   ar
     6    19    22    1
     7    22    23   ar
     8    23    24   ar
     9    24    25   ar
    10    25    26    2
    11    25    27   ar
    12    27    29    1
    13    29    30    1
    14    29    31    1
    15    27    28   ar
    16    19    20   ar
    17    20    21   ar
    18    15     1    1
    19     1     2    1
    20     2     3    1
    21     3     4    1
    22     4    32    1
    23    32    33    1
    24    33    34    1
    25    33    35    1
    26    33    36    1
    27     4     8    1
    28     8     9   ar
    29     9    10   ar
    30    10    11   ar
    31    11    12   ar
    32    12    13   ar
    33     4     5    1
    34     5     6    1
    35     6     7    2
    36    21    16   ar
    37     6     1   am
    38    28    22   ar
    39    13     8   ar
    40    36    37    1
@<TRIPOS>MOLECULE
*****
 37 40 0 0 0
SMALL
GASTEIGER

@<TRIPOS>ATOM
      1 N          63.4561   90.5490   11.9901 N.am    1  UNL1       -0.2438
      2 C          64.1251   90.3627   13.3196 C.3     1  UNL1        0.1009
      3 C          65.3201   91.1942   13.6810 C.3     1  UNL1        0.0662
      4 C          65.8461   92.2119   12.7129 C.3     1  UNL1        0.1600
      5 O          65.1772   92.3983   11.3832 O.3     1  UNL1       -0.4374
      6 C          63.9822   91.5668   11.0218 C.2     1  UNL1        0.4051
      7 O          63.3133   91.7531    9.6923 O.2     1  UNL1       -0.2262
      8 C          66.8146   92.4020   13.8425 C.ar    1  UNL1        0.0138
      9 C          66.3249   92.8777   15.1782 C.ar    1  UNL1       -0.0010
     10 C          67.2934   93.0678   16.3078 C.ar    1  UNL1       -0.0002
     11 C          68.7514   92.7822   16.1017 C.ar    1  UNL1       -0.0000
     12 C          69.2411   92.3065   14.7660 C.ar    1  UNL1       -0.0002
     13 C          68.2726   92.1164   13.6364 C.ar    1  UNL1       -0.0010
     14 C          60.9536   90.3811   11.3125 C.3     1  UNL1        0.0265
     15 C          62.2611   89.7175   11.6286 C.3     1  UNL1        0.1011
     16 C          62.3737   88.2224   11.5834 C.ar    1  UNL1       -0.0042
     17 C          61.7429   87.4565   10.4585 C.ar    1  UNL1       -0.0027
     18 C          61.8555   85.9614   10.4133 C.ar    1  UNL1       -0.0002
     19 C          62.5989   85.2323   11.4930 C.ar    1  UNL1        0.0014
     20 C          63.2296   85.9982   12.6179 C.ar    1  UNL1       -0.0002
     21 C          63.1171   87.4932   12.6631 C.ar    1  UNL1       -0.0027
     22 C          62.7114   83.7371   11.4478 C.ar    1  UNL1        0.0176
     23 C          63.3221   83.0668   10.2529 C.ar    1  UNL1        0.0064
     24 C          63.4347   81.5717   10.2077 C.ar    1  UNL1        0.0609
     25 C          62.9365   80.7469   11.3573 C.ar    1  UNL1        0.2649
     26 O          63.0491   79.2519   11.3121 O.2     1  UNL1       -0.2668
     27 N          62.3258   81.4174   12.5522 N.ar    1  UNL1       -0.2393
     28 C          62.2133   82.9124   12.5974 C.ar    1  UNL1        0.0833
     29 C          61.8276   80.5926   13.7018 C.3     1  UNL1        0.4163
     30 F          60.4160   80.7522   14.1832 F       1  UNL1       -0.1724
     31 F          62.7412   79.6082   14.3701 F       1  UNL1       -0.1724
     32 C          66.7086   93.2958   12.1370 C.3     1  UNL1        0.0714
     33 C          66.5741   93.6727   10.6914 C.3     1  UNL1        0.0922
     34 C          67.3636   92.4583   10.3014 C.3     1  UNL1        0.0294
     35 C          65.7847   94.8870   11.0814 C.3     1  UNL1        0.0294
     36 O          66.4397   94.0495    9.2458 O.3     1  UNL1       -0.3866
     37 H          66.8921   93.3903    8.6964 H       1  UNL1        0.2102
@<TRIPOS>BOND
     1    15    14    1
     2    15    16    1
     3    16    17   ar
     4    17    18   ar
     5    18    19   ar
     6    19    22    1
     7    22    23   ar
     8    23    24   ar
     9    24    25   ar
    10    25    26    2
    11    25    27   ar
    12    27    29    1
    13    29    30    1
    14    29    31    1
    15    27    28   ar
    16    19    20   ar
    17    20    21   ar
    18    15     1    1
    19     1     2    1
    20     2     3    1
    21     3     4    1
    22     4    32    1
    23    32    33    1
    24    33    34    1
    25    33    35    1
    26    33    36    1
    27     4     8    1
    28     8     9   ar
    29     9    10   ar
    30    10    11   ar
    31    11    12   ar
    32    12    13   ar
    33     4     5    1
    34     5     6    1
    35     6     7    2
    36    21    16   ar
    37     6     1   am
    38    28    22   ar
    39    13     8   ar
    40    36    37    1
@<TRIPOS>MOLECULE
*****
 37 40 0 0 0
SMALL
GASTEIGER

@<TRIPOS>ATOM
      1 N          63.2536   90.9424   11.5096 N.am    1  UNL1       -0.2438
      2 C          63.7222   91.6822   10.2918 C.3     1  UNL1        0.1009
      3 C          64.8295   92.6877   10.4050 C.3     1  UNL1        0.0662
      4 C          65.4681   92.9535   11.7360 C.3     1  UNL1        0.1600
      5 O          64.9994   92.2137   12.9538 O.3     1  UNL1       -0.4374
      6 C          63.8922   91.2081   12.8406 C.2     1  UNL1        0.4051
      7 O          63.4235   90.4683   14.0584 O.2     1  UNL1       -0.2262
      8 C          66.2532   93.8998   10.8768 C.ar    1  UNL1        0.0138
      9 C          67.0829   93.3718    9.7441 C.ar    1  UNL1       -0.0010
     10 C          67.8680   94.3181    8.8849 C.ar    1  UNL1       -0.0002
     11 C          67.8234   95.7923    9.1585 C.ar    1  UNL1       -0.0000
     12 C          66.9937   96.3202   10.2911 C.ar    1  UNL1       -0.0002
     13 C          66.2086   95.3740   11.1503 C.ar    1  UNL1       -0.0010
     14 C          60.7998   90.3580   10.8872 C.3     1  UNL1        0.0265
     15 C          62.1463   89.9368   11.3964 C.3     1  UNL1        0.1011
     16 C          62.3857   88.5099   11.7924 C.ar    1  UNL1       -0.0042
     17 C          63.3970   88.1850   12.8515 C.ar    1  UNL1       -0.0027
     18 C          63.6363   86.7582   13.2475 C.ar    1  UNL1       -0.0002
     19 C          62.8643   85.6562   12.5844 C.ar    1  UNL1        0.0014
     20 C          61.8530   85.9811   11.5254 C.ar    1  UNL1       -0.0002
     21 C          61.6137   87.4079   11.1294 C.ar    1  UNL1       -0.0027
     22 C          63.1036   84.2294   12.9805 C.ar    1  UNL1        0.0176
     23 C          63.5369   83.9017   14.3786 C.ar    1  UNL1        0.0064
     24 C          63.7762   82.4748   14.7747 C.ar    1  UNL1        0.0609
     25 C          63.5823   81.3756   13.7725 C.ar    1  UNL1        0.2649
     26 O          63.8217   79.9488   14.1685 O.2     1  UNL1       -0.2668
     27 N          63.1491   81.7034   12.3743 N.ar    1  UNL1       -0.2393
     28 C          62.9097   83.1302   11.9783 C.ar    1  UNL1        0.0833
     29 C          62.9552   80.6043   11.3721 C.3     1  UNL1        0.4163
     30 F          62.4740   79.2563   11.8210 F       1  UNL1       -0.1724
     31 F          63.2424   80.8532    9.9210 F       1  UNL1       -0.1724
     32 C          66.3794   93.5479   12.7686 C.3     1  UNL1        0.0714
     33 C          67.1084   92.6553   13.7285 C.3     1  UNL1        0.0922
     34 C          67.7159   91.9119   12.5759 C.3     1  UNL1        0.0294
     35 C          66.5010   93.3985   14.8811 C.3     1  UNL1        0.0294
     36 O          67.8376   91.7625   14.6883 O.3     1  UNL1       -0.3866
     37 H          68.3651   91.1170   14.1925 H       1  UNL1        0.2102
@<TRIPOS>BOND
     1    15    14    1
     2    15    16    1
     3    16    17   ar
     4    17    18   ar
     5    18    19   ar
     6    19    22    1
     7    22    23   ar
     8    23    24   ar
     9    24    25   ar
    10    25    26    2
    11    25    27   ar
    12    27    29    1
    13    29    30    1
    14    29    31    1
    15    27    28   ar
    16    19    20   ar
    17    20    21   ar
    18    15     1    1
    19     1     2    1
    20     2     3    1
    21     3     4    1
    22     4    32    1
    23    32    33    1
    24    33    34    1
    25    33    35    1
    26    33    36    1
    27     4     8    1
    28     8     9   ar
    29     9    10   ar
    30    10    11   ar
    31    11    12   ar
    32    12    13   ar
    33     4     5    1
    34     5     6    1
    35     6     7    2
    36    21    16   ar
    37     6     1   am
    38    28    22   ar
    39    13     8   ar
    40    36    37    1
@<TRIPOS>MOLECULE
*****
 37 40 0 0 0
SMALL
GASTEIGER

@<TRIPOS>ATOM
      1 N          63.5506   90.4844   11.8794 N.am    1  UNL1       -0.2438
      2 C          64.2344   90.2748   13.1979 C.3     1  UNL1        0.1009
      3 C          65.3798   91.1571   13.5974 C.3     1  UNL1        0.0662
      4 C          65.8414   92.2491   12.6785 C.3     1  UNL1        0.1600
      5 O          65.1576   92.4588   11.3599 O.3     1  UNL1       -0.4374
      6 C          64.0122   91.5764   10.9604 C.2     1  UNL1        0.4051
      7 O          63.3284   91.7861    9.6419 O.2     1  UNL1       -0.2262
      8 C          66.8013   92.4419   13.8149 C.ar    1  UNL1        0.0138
      9 C          68.2588   92.1431   13.6244 C.ar    1  UNL1       -0.0010
     10 C          69.2187   92.3359   14.7609 C.ar    1  UNL1       -0.0002
     11 C          68.7210   92.8276   16.0877 C.ar    1  UNL1       -0.0000
     12 C          67.2635   93.1264   16.2782 C.ar    1  UNL1       -0.0002
     13 C          66.3036   92.9336   15.1418 C.ar    1  UNL1       -0.0010
     14 C          61.2207   90.1866   10.7692 C.3     1  UNL1        0.0265
     15 C          62.4053   89.6021   11.4798 C.3     1  UNL1        0.1011
     16 C          62.4446   88.1352   11.7909 C.ar    1  UNL1       -0.0042
     17 C          63.3779   87.6166   12.8444 C.ar    1  UNL1       -0.0027
     18 C          63.4172   86.1498   13.1555 C.ar    1  UNL1       -0.0002
     19 C          62.5231   85.2015   12.4130 C.ar    1  UNL1        0.0014
     20 C          61.5897   85.7200   11.3595 C.ar    1  UNL1       -0.0002
     21 C          61.5504   87.1868   11.0485 C.ar    1  UNL1       -0.0027
     22 C          62.5624   83.7346   12.7241 C.ar    1  UNL1        0.0176
     23 C          62.4060   83.2636   14.1396 C.ar    1  UNL1        0.0064
     24 C          62.4453   81.7967   14.4507 C.ar    1  UNL1        0.0609
     25 C          62.6409   80.8008   13.3463 C.ar    1  UNL1        0.2649
     26 O          62.6802   79.3340   13.6573 O.2     1  UNL1       -0.2668
     27 N          62.7973   81.2718   11.9307 N.ar    1  UNL1       -0.2393
     28 C          62.7580   82.7387   11.6196 C.ar    1  UNL1        0.0833
     29 C          62.9930   80.2759   10.8262 C.3     1  UNL1        0.4163
     30 F          63.5779   80.7140    9.5163 F       1  UNL1       -0.1724
     31 F          62.6037   78.8419   11.0317 F       1  UNL1       -0.1724
     32 C          66.6363   93.4081   12.1542 C.3     1  UNL1        0.0714
     33 C          66.5738   93.7630   10.6982 C.3     1  UNL1        0.0922
     34 C          67.3688   92.5354   10.3647 C.3     1  UNL1        0.0294
     35 C          65.7788   94.9905   11.0316 C.3     1  UNL1        0.0294
     36 O          66.5112   94.1179    9.2421 O.3     1  UNL1       -0.3866
     37 H          66.9824   93.4460    8.7250 H       1  UNL1        0.2102
@<TRIPOS>BOND
     1    15    14    1
     2    15    16    1
     3    16    17   ar
     4    17    18   ar
     5    18    19   ar
     6    19    22    1
     7    22    23   ar
     8    23    24   ar
     9    24    25   ar
    10    25    26    2
    11    25    27   ar
    12    27    29    1
    13    29    30    1
    14    29    31    1
    15    27    28   ar
    16    19    20   ar
    17    20    21   ar
    18    15     1    1
    19     1     2    1
    20     2     3    1
    21     3     4    1
    22     4    32    1
    23    32    33    1
    24    33    34    1
    25    33    35    1
    26    33    36    1
    27     4     8    1
    28     8     9   ar
    29     9    10   ar
    30    10    11   ar
    31    11    12   ar
    32    12    13   ar
    33     4     5    1
    34     5     6    1
    35     6     7    2
    36    21    16   ar
    37     6     1   am
    38    28    22   ar
    39    13     8   ar
    40    36    37    1
