@<TRIPOS>MOLECULE
*****
 24 25 0 0 0
SMALL
GASTEIGER

@<TRIPOS>ATOM
      1 C          64.8557   92.1238   12.1939 C.ar    1  UNL1        0.0711
      2 C          64.6869   92.2414   10.7081 C.ar    1  UNL1        0.0038
      3 C          63.6027   91.4722   10.0133 C.ar    1  UNL1        0.0000
      4 C          62.6873   90.5853   10.8042 C.ar    1  UNL1        0.0031
      5 C          62.8562   90.4677   12.2900 C.ar    1  UNL1        0.0373
      6 C          63.9404   91.2369   12.9848 C.ar    1  UNL1        0.1461
      7 C          65.9399   92.8930   12.8888 C.3     1  UNL1        0.2859
      8 S          67.2085   92.2022   13.2931 S.O     1  UNL1        0.0448
      9 O          68.2347   91.8515   12.2568 O.co2   1  UNL1       -0.6807
     10 C          67.4509   91.8621   14.7338 C.3     1  UNL1        0.3397
     11 N          65.7649   92.7450   16.5025 N.am    1  UNL1       -0.3246
     12 C          67.0904   92.8457   15.8075 C.2     1  UNL1        0.2798
     13 O          68.0553   93.9298   16.1862 O.2     1  UNL1       -0.2697
     14 H          65.5283   93.3904   17.2072 H       1  UNL1        0.1451
     15 H          65.1316   92.0334   16.2540 H       1  UNL1        0.1451
     16 O          64.1092   91.1192   14.4707 O.3     1  UNL1       -0.4536
     17 C          63.8876   89.7996   15.1485 C.ar    1  UNL1        0.1462
     18 C          63.1794   89.7446   16.4698 C.ar    1  UNL1        0.0384
     19 C          62.9579   88.4250   17.1476 C.ar    1  UNL1        0.0154
     20 C          63.4444   87.1604   16.5043 C.ar    1  UNL1        0.0684
     21 CL         63.2229   85.8407   17.1821 Cl      1  UNL1       -0.0814
     22 C          64.1526   87.2153   15.1831 C.ar    1  UNL1        0.0712
     23 CL         64.6392   85.9506   14.5398 Cl      1  UNL1       -0.0813
     24 C          64.3742   88.5350   14.5052 C.ar    1  UNL1        0.0497
@<TRIPOS>UNITY_ATOM_ATTR
8 1
charge 1
9 1
charge -1
@<TRIPOS>BOND
     1    11    12   am
     2    12    13    2
     3    12    10    1
     4    10     8    1
     5     8     9    2
     6     8     7    1
     7     7     1    1
     8     1     2   ar
     9     2     3   ar
    10     3     4   ar
    11     4     5   ar
    12     5     6   ar
    13     6    16    1
    14    16    17    1
    15    17    18   ar
    16    18    19   ar
    17    19    20   ar
    18    20    21    1
    19    20    22   ar
    20    22    23    1
    21    22    24   ar
    22     6     1   ar
    23    24    17   ar
    24    11    14    1
    25    11    15    1
@<TRIPOS>MOLECULE
*****
 24 25 0 0 0
SMALL
GASTEIGER

@<TRIPOS>ATOM
      1 C          62.6554   83.2013   13.6711 C.ar    1  UNL1        0.0711
      2 C          62.1390   81.9707   14.3559 C.ar    1  UNL1        0.0038
      3 C          62.1411   80.6549   13.6357 C.ar    1  UNL1        0.0000
      4 C          62.6596   80.5697   12.2308 C.ar    1  UNL1        0.0031
      5 C          63.1759   81.8003   11.5460 C.ar    1  UNL1        0.0373
      6 C          63.1738   83.1161   12.2662 C.ar    1  UNL1        0.1461
      7 C          62.6533   84.5171   14.3913 C.3     1  UNL1        0.2859
      8 S          63.8768   84.9683   15.1325 S.O     1  UNL1        0.0448
      9 O          65.2275   84.8546   14.4901 O.co2   1  UNL1       -0.6807
     10 C          63.7496   85.5333   16.5162 C.3     1  UNL1        0.3397
     11 N          63.1003   88.0416   16.7093 N.am    1  UNL1       -0.3246
     12 C          62.7263   86.5920   16.8029 C.2     1  UNL1        0.2798
     13 O          61.3290   86.2010   17.1833 O.2     1  UNL1       -0.2697
     14 H          62.4287   88.7364   16.8975 H       1  UNL1        0.1451
     15 H          64.0174   88.2982   16.4597 H       1  UNL1        0.1451
     16 O          63.6902   84.3467   11.5814 O.3     1  UNL1       -0.4536
     17 C          62.7884   85.1387   10.6818 C.ar    1  UNL1        0.1462
     18 C          62.8641   84.9564    9.1947 C.ar    1  UNL1        0.0384
     19 C          61.9623   85.7484    8.2951 C.ar    1  UNL1        0.0154
     20 C          60.9846   86.7227    8.8824 C.ar    1  UNL1        0.0684
     21 CL         60.0827   87.5147    7.9828 Cl      1  UNL1       -0.0814
     22 C          60.9088   86.9050   10.3694 C.ar    1  UNL1        0.0712
     23 CL         59.9312   87.8793   10.9567 Cl      1  UNL1       -0.0813
     24 C          61.8107   86.1130   11.2691 C.ar    1  UNL1        0.0497
@<TRIPOS>UNITY_ATOM_ATTR
8 1
charge 1
9 1
charge -1
@<TRIPOS>BOND
     1    11    12   am
     2    12    13    2
     3    12    10    1
     4    10     8    1
     5     8     9    2
     6     8     7    1
     7     7     1    1
     8     1     2   ar
     9     2     3   ar
    10     3     4   ar
    11     4     5   ar
    12     5     6   ar
    13     6    16    1
    14    16    17    1
    15    17    18   ar
    16    18    19   ar
    17    19    20   ar
    18    20    21    1
    19    20    22   ar
    20    22    23    1
    21    22    24   ar
    22     6     1   ar
    23    24    17   ar
    24    11    14    1
    25    11    15    1
@<TRIPOS>MOLECULE
*****
 24 25 0 0 0
SMALL
GASTEIGER

@<TRIPOS>ATOM
      1 C          62.7342   85.2292   11.5257 C.ar    1  UNL1        0.0711
      2 C          63.2914   84.0393   10.8021 C.ar    1  UNL1        0.0038
      3 C          63.3977   84.0534    9.3060 C.ar    1  UNL1        0.0000
      4 C          62.9469   85.2575    8.5334 C.ar    1  UNL1        0.0031
      5 C          62.3897   86.4474    9.2569 C.ar    1  UNL1        0.0373
      6 C          62.2834   86.4333   10.7531 C.ar    1  UNL1        0.1461
      7 C          62.6279   85.2151   13.0218 C.3     1  UNL1        0.2859
      8 S          63.1976   84.0686   13.8034 S.O     1  UNL1        0.0448
      9 O          64.6796   83.8376   13.8236 O.co2   1  UNL1       -0.6807
     10 C          62.2854   83.1532   14.5649 C.3     1  UNL1        0.3397
     11 N          63.5186   80.9348   14.0100 N.am    1  UNL1       -0.3246
     12 C          62.2425   81.6910   14.2330 C.2     1  UNL1        0.2798
     13 O          60.9235   80.9850   14.1241 O.2     1  UNL1       -0.2697
     14 H          63.4905   79.9751   13.7922 H       1  UNL1        0.1451
     15 H          64.3843   81.3982   14.0815 H       1  UNL1        0.1451
     16 O          61.7262   87.6233   11.4766 O.3     1  UNL1       -0.4536
     17 C          62.5542   88.8649   11.6271 C.ar    1  UNL1        0.1462
     18 C          62.5713   89.8922   10.5341 C.ar    1  UNL1        0.0384
     19 C          63.3993   91.1338   10.6847 C.ar    1  UNL1        0.0154
     20 C          64.2104   91.3482   11.9281 C.ar    1  UNL1        0.0684
     21 CL         65.0384   92.5898   12.0786 Cl      1  UNL1       -0.0814
     22 C          64.1934   90.3210   13.0211 C.ar    1  UNL1        0.0712
     23 CL         65.0044   90.5354   14.2645 Cl      1  UNL1       -0.0813
     24 C          63.3653   89.0793   12.8706 C.ar    1  UNL1        0.0497
@<TRIPOS>UNITY_ATOM_ATTR
8 1
charge 1
9 1
charge -1
@<TRIPOS>BOND
     1    11    12   am
     2    12    13    2
     3    12    10    1
     4    10     8    1
     5     8     9    2
     6     8     7    1
     7     7     1    1
     8     1     2   ar
     9     2     3   ar
    10     3     4   ar
    11     4     5   ar
    12     5     6   ar
    13     6    16    1
    14    16    17    1
    15    17    18   ar
    16    18    19   ar
    17    19    20   ar
    18    20    21    1
    19    20    22   ar
    20    22    23    1
    21    22    24   ar
    22     6     1   ar
    23    24    17   ar
    24    11    14    1
    25    11    15    1
@<TRIPOS>MOLECULE
*****
 24 25 0 0 0
SMALL
GASTEIGER

@<TRIPOS>ATOM
      1 C          63.7036   82.7286   13.6869 C.ar    1  UNL1        0.0711
      2 C          63.2470   81.5194   14.4480 C.ar    1  UNL1        0.0038
      3 C          62.6867   80.3380   13.7129 C.ar    1  UNL1        0.0000
      4 C          62.5829   80.3658   12.2168 C.ar    1  UNL1        0.0031
      5 C          63.0395   81.5751   11.4557 C.ar    1  UNL1        0.0373
      6 C          63.5998   82.7565   12.1908 C.ar    1  UNL1        0.1461
      7 C          64.2639   83.9100   14.4220 C.3     1  UNL1        0.2859
      8 S          63.3507   84.8140   15.1957 S.O     1  UNL1        0.0448
      9 O          61.8651   84.7133   15.0140 O.co2   1  UNL1       -0.6807
     10 C          63.9229   85.8187   16.1513 C.3     1  UNL1        0.3397
     11 N          63.0228   88.1776   16.7642 N.am    1  UNL1       -0.3246
     12 C          63.0083   86.6905   16.9598 C.2     1  UNL1        0.2798
     13 O          62.0791   86.0751   17.9637 O.2     1  UNL1       -0.2697
     14 H          62.4225   88.7498   17.2948 H       1  UNL1        0.1451
     15 H          63.6327   88.5815   16.1053 H       1  UNL1        0.1451
     16 O          64.0564   83.9657   11.4297 O.3     1  UNL1       -0.4536
     17 C          63.1058   84.6790   10.5145 C.ar    1  UNL1        0.1462
     18 C          62.0814   85.6173   11.0805 C.ar    1  UNL1        0.0384
     19 C          61.1308   86.3305   10.1654 C.ar    1  UNL1        0.0154
     20 C          61.2045   86.1055    8.6842 C.ar    1  UNL1        0.0684
     21 CL         60.2539   86.8188    7.7690 Cl      1  UNL1       -0.0814
     22 C          62.2288   85.1673    8.1181 C.ar    1  UNL1        0.0712
     23 CL         62.3026   84.9423    6.6369 Cl      1  UNL1       -0.0813
     24 C          63.1795   84.4540    9.0333 C.ar    1  UNL1        0.0497
@<TRIPOS>UNITY_ATOM_ATTR
8 1
charge 1
9 1
charge -1
@<TRIPOS>BOND
     1    11    12   am
     2    12    13    2
     3    12    10    1
     4    10     8    1
     5     8     9    2
     6     8     7    1
     7     7     1    1
     8     1     2   ar
     9     2     3   ar
    10     3     4   ar
    11     4     5   ar
    12     5     6   ar
    13     6    16    1
    14    16    17    1
    15    17    18   ar
    16    18    19   ar
    17    19    20   ar
    18    20    21    1
    19    20    22   ar
    20    22    23    1
    21    22    24   ar
    22     6     1   ar
    23    24    17   ar
    24    11    14    1
    25    11    15    1
@<TRIPOS>MOLECULE
*****
 24 25 0 0 0
SMALL
GASTEIGER

@<TRIPOS>ATOM
      1 C          60.4116   87.3042    9.8944 C.ar    1  UNL1        0.0711
      2 C          59.2800   87.4682    8.9237 C.ar    1  UNL1        0.0038
      3 C          59.2845   86.7074    7.6309 C.ar    1  UNL1        0.0000
      4 C          60.4207   85.7825    7.3090 C.ar    1  UNL1        0.0031
      5 C          61.5523   85.6185    8.2798 C.ar    1  UNL1        0.0373
      6 C          61.5478   86.3793    9.5725 C.ar    1  UNL1        0.1461
      7 C          60.4071   88.0650   11.1872 C.3     1  UNL1        0.2859
      8 S          60.7679   89.5208   11.2018 S.O     1  UNL1        0.0448
      9 O          59.7027   90.5595   11.0107 O.co2   1  UNL1       -0.6807
     10 C          62.1939   89.9381   11.4077 C.3     1  UNL1        0.3397
     11 N          62.9298   90.6419   13.7979 N.am    1  UNL1       -0.3246
     12 C          62.8890   89.6219   12.6988 C.2     1  UNL1        0.2798
     13 O          63.5432   88.2859   12.8908 O.2     1  UNL1       -0.2697
     14 H          63.3859   90.4344   14.6453 H       1  UNL1        0.1451
     15 H          62.5004   91.5188   13.6719 H       1  UNL1        0.1451
     16 O          62.6795   86.2152   10.5433 O.3     1  UNL1       -0.4536
     17 C          62.8954   84.8982   11.2279 C.ar    1  UNL1        0.1462
     18 C          63.4935   83.7490   10.4717 C.ar    1  UNL1        0.0384
     19 C          63.7094   82.4319   11.1563 C.ar    1  UNL1        0.0154
     20 C          63.3273   82.2640   12.5970 C.ar    1  UNL1        0.0684
     21 CL         63.5432   80.9469   13.2816 Cl      1  UNL1       -0.0814
     22 C          62.7292   83.4131   13.3532 C.ar    1  UNL1        0.0712
     23 CL         62.3470   83.2451   14.7939 Cl      1  UNL1       -0.0813
     24 C          62.5133   84.7302   12.6686 C.ar    1  UNL1        0.0497
@<TRIPOS>UNITY_ATOM_ATTR
8 1
charge 1
9 1
charge -1
@<TRIPOS>BOND
     1    11    12   am
     2    12    13    2
     3    12    10    1
     4    10     8    1
     5     8     9    2
     6     8     7    1
     7     7     1    1
     8     1     2   ar
     9     2     3   ar
    10     3     4   ar
    11     4     5   ar
    12     5     6   ar
    13     6    16    1
    14    16    17    1
    15    17    18   ar
    16    18    19   ar
    17    19    20   ar
    18    20    21    1
    19    20    22   ar
    20    22    23    1
    21    22    24   ar
    22     6     1   ar
    23    24    17   ar
    24    11    14    1
    25    11    15    1
@<TRIPOS>MOLECULE
*****
 24 25 0 0 0
SMALL
GASTEIGER

@<TRIPOS>ATOM
      1 C          61.3889   87.9206    9.1861 C.ar    1  UNL1        0.0711
      2 C          60.0524   88.5000    8.8282 C.ar    1  UNL1        0.0038
      3 C          59.0599   87.6779    8.0606 C.ar    1  UNL1        0.0000
      4 C          59.4039   86.2766    7.6509 C.ar    1  UNL1        0.0031
      5 C          60.7404   85.6973    8.0088 C.ar    1  UNL1        0.0373
      6 C          61.7329   86.5193    8.7764 C.ar    1  UNL1        0.1461
      7 C          62.3814   88.7427    9.9537 C.3     1  UNL1        0.2859
      8 S          62.2201   88.9237   11.4339 S.O     1  UNL1        0.0448
      9 O          62.9327   88.0071   12.3837 O.co2   1  UNL1       -0.6807
     10 C          61.3463   90.0215   11.9644 C.3     1  UNL1        0.3397
     11 N          59.2228   88.5878   12.3949 N.am    1  UNL1       -0.3246
     12 C          59.8541   89.8702   11.9401 C.2     1  UNL1        0.2798
     13 O          58.9933   91.0013   11.4611 O.2     1  UNL1       -0.2697
     14 H          58.2434   88.4885   12.3790 H       1  UNL1        0.1451
     15 H          59.7878   87.8453   12.7093 H       1  UNL1        0.1451
     16 O          63.0695   85.9399    9.1343 O.3     1  UNL1       -0.4536
     17 C          63.1554   84.7861   10.0888 C.ar    1  UNL1        0.1462
     18 C          63.7534   83.4853    9.6412 C.ar    1  UNL1        0.0384
     19 C          63.8394   82.3315   10.5958 C.ar    1  UNL1        0.0154
     20 C          63.3273   82.4784   11.9980 C.ar    1  UNL1        0.0684
     21 CL         63.4133   81.3246   12.9526 Cl      1  UNL1       -0.0814
     22 C          62.7294   83.7791   12.4457 C.ar    1  UNL1        0.0712
     23 CL         62.2173   83.9261   13.8479 Cl      1  UNL1       -0.0813
     24 C          62.6434   84.9330   11.4911 C.ar    1  UNL1        0.0497
@<TRIPOS>UNITY_ATOM_ATTR
8 1
charge 1
9 1
charge -1
@<TRIPOS>BOND
     1    11    12   am
     2    12    13    2
     3    12    10    1
     4    10     8    1
     5     8     9    2
     6     8     7    1
     7     7     1    1
     8     1     2   ar
     9     2     3   ar
    10     3     4   ar
    11     4     5   ar
    12     5     6   ar
    13     6    16    1
    14    16    17    1
    15    17    18   ar
    16    18    19   ar
    17    19    20   ar
    18    20    21    1
    19    20    22   ar
    20    22    23    1
    21    22    24   ar
    22     6     1   ar
    23    24    17   ar
    24    11    14    1
    25    11    15    1
@<TRIPOS>MOLECULE
*****
 24 25 0 0 0
SMALL
GASTEIGER

@<TRIPOS>ATOM
      1 C          64.0481   90.8433   13.9007 C.ar    1  UNL1        0.0711
      2 C          65.3094   91.6547   13.8748 C.ar    1  UNL1        0.0038
      3 C          65.7842   92.2619   12.5880 C.ar    1  UNL1        0.0000
      4 C          64.9977   92.0578   11.3271 C.ar    1  UNL1        0.0031
      5 C          63.7364   91.2463   11.3531 C.ar    1  UNL1        0.0373
      6 C          63.2616   90.6391   12.6399 C.ar    1  UNL1        0.1461
      7 C          63.5733   90.2360   15.1875 C.3     1  UNL1        0.2859
      8 S          63.6799   88.7554   15.4024 S.O     1  UNL1        0.0448
      9 O          64.2357   87.8784   14.3197 O.co2   1  UNL1       -0.6807
     10 C          63.2308   88.1515   16.7000 C.3     1  UNL1        0.3397
     11 N          64.0420   85.7158   16.3009 N.am    1  UNL1       -0.3246
     12 C          62.9997   86.6727   16.7988 C.2     1  UNL1        0.2798
     13 O          61.7263   86.1508   17.3955 O.2     1  UNL1       -0.2697
     14 H          63.8904   84.7452   16.3657 H       1  UNL1        0.1451
     15 H          64.8778   86.0583   15.9092 H       1  UNL1        0.1451
     16 O          62.0003   89.8276   12.6658 O.3     1  UNL1       -0.4536
     17 C          61.5981   89.0278   11.4623 C.ar    1  UNL1        0.1462
     18 C          60.5409   89.5489   10.5344 C.ar    1  UNL1        0.0384
     19 C          60.1388   88.7491    9.3309 C.ar    1  UNL1        0.0154
     20 C          60.7939   87.4282    9.0551 C.ar    1  UNL1        0.0684
     21 CL         60.3918   86.6284    7.8515 Cl      1  UNL1       -0.0814
     22 C          61.8510   86.9071    9.9828 C.ar    1  UNL1        0.0712
     23 CL         62.5061   85.5862    9.7070 Cl      1  UNL1       -0.0813
     24 C          62.2532   87.7069   11.1865 C.ar    1  UNL1        0.0497
@<TRIPOS>UNITY_ATOM_ATTR
8 1
charge 1
9 1
charge -1
@<TRIPOS>BOND
     1    11    12   am
     2    12    13    2
     3    12    10    1
     4    10     8    1
     5     8     9    2
     6     8     7    1
     7     7     1    1
     8     1     2   ar
     9     2     3   ar
    10     3     4   ar
    11     4     5   ar
    12     5     6   ar
    13     6    16    1
    14    16    17    1
    15    17    18   ar
    16    18    19   ar
    17    19    20   ar
    18    20    21    1
    19    20    22   ar
    20    22    23    1
    21    22    24   ar
    22     6     1   ar
    23    24    17   ar
    24    11    14    1
    25    11    15    1
@<TRIPOS>MOLECULE
*****
 24 25 0 0 0
SMALL
GASTEIGER

@<TRIPOS>ATOM
      1 C          63.7196   90.7278   13.6315 C.ar    1  UNL1        0.0711
      2 C          64.9601   91.5709   13.6526 C.ar    1  UNL1        0.0038
      3 C          65.4854   92.1642   12.3790 C.ar    1  UNL1        0.0000
      4 C          64.7704   91.9144   11.0844 C.ar    1  UNL1        0.0031
      5 C          63.5299   91.0714   11.0633 C.ar    1  UNL1        0.0373
      6 C          63.0046   90.4781   12.3368 C.ar    1  UNL1        0.1461
      7 C          63.1943   90.1345   14.9051 C.3     1  UNL1        0.2859
      8 S          63.6121   88.7543   15.3178 S.O     1  UNL1        0.0448
      9 O          63.2303   88.2277   16.6695 O.co2   1  UNL1       -0.6807
     10 C          64.4117   87.9005   14.3788 C.3     1  UNL1        0.3397
     11 N          65.4981   85.6761   15.1676 N.am    1  UNL1       -0.3246
     12 C          64.3688   86.4062   14.5029 C.2     1  UNL1        0.2798
     13 O          63.1968   85.6420   13.9623 O.2     1  UNL1       -0.2697
     14 H          65.4700   84.6954   15.2491 H       1  UNL1        0.1451
     15 H          66.2673   86.1777   15.5225 H       1  UNL1        0.1451
     16 O          61.7640   89.6350   12.3157 O.3     1  UNL1       -0.4536
     17 C          61.5044   88.7115   11.1625 C.ar    1  UNL1        0.1462
     18 C          62.1601   87.3631   11.1191 C.ar    1  UNL1        0.0384
     19 C          61.9005   86.4396    9.9659 C.ar    1  UNL1        0.0154
     20 C          60.9851   86.8646    8.8562 C.ar    1  UNL1        0.0684
     21 CL         60.7255   85.9411    7.7030 Cl      1  UNL1       -0.0814
     22 C          60.3294   88.2129    8.8995 C.ar    1  UNL1        0.0712
     23 CL         59.4141   88.6379    7.7898 Cl      1  UNL1       -0.0813
     24 C          60.5891   89.1365   10.0527 C.ar    1  UNL1        0.0497
@<TRIPOS>UNITY_ATOM_ATTR
8 1
charge 1
9 1
charge -1
@<TRIPOS>BOND
     1    11    12   am
     2    12    13    2
     3    12    10    1
     4    10     8    1
     5     8     9    2
     6     8     7    1
     7     7     1    1
     8     1     2   ar
     9     2     3   ar
    10     3     4   ar
    11     4     5   ar
    12     5     6   ar
    13     6    16    1
    14    16    17    1
    15    17    18   ar
    16    18    19   ar
    17    19    20   ar
    18    20    21    1
    19    20    22   ar
    20    22    23    1
    21    22    24   ar
    22     6     1   ar
    23    24    17   ar
    24    11    14    1
    25    11    15    1
@<TRIPOS>MOLECULE
*****
 24 25 0 0 0
SMALL
GASTEIGER

@<TRIPOS>ATOM
      1 C          62.5466   88.8372   11.4542 C.ar    1  UNL1        0.0711
      2 C          61.7713   89.6899   10.4942 C.ar    1  UNL1        0.0038
      3 C          60.7490   89.0643    9.5922 C.ar    1  UNL1        0.0000
      4 C          60.5021   87.5859    9.6503 C.ar    1  UNL1        0.0031
      5 C          61.2773   86.7332   10.6103 C.ar    1  UNL1        0.0373
      6 C          62.2996   87.3589   11.5123 C.ar    1  UNL1        0.1461
      7 C          63.5688   89.4629   12.3562 C.3     1  UNL1        0.2859
      8 S          63.1629   89.9815   13.7038 S.O     1  UNL1        0.0448
      9 O          61.7534   89.7998   14.1840 O.co2   1  UNL1       -0.6807
     10 C          64.1663   90.6819   14.5713 C.3     1  UNL1        0.3397
     11 N          63.1345   89.9414   16.8379 N.am    1  UNL1       -0.3246
     12 C          63.8446   90.9695   16.0080 C.2     1  UNL1        0.2798
     13 O          64.2330   92.2852   16.6147 O.2     1  UNL1       -0.2697
     14 H          62.9234   90.1301   17.7808 H       1  UNL1        0.1451
     15 H          62.8796   89.0778   16.4397 H       1  UNL1        0.1451
     16 O          63.0749   86.5061   12.4724 O.3     1  UNL1       -0.4536
     17 C          63.0164   85.0112   12.3636 C.ar    1  UNL1        0.1462
     18 C          63.4718   84.3323   11.1059 C.ar    1  UNL1        0.0384
     19 C          63.4134   82.8375   10.9970 C.ar    1  UNL1        0.0154
     20 C          62.8995   82.0214   12.1459 C.ar    1  UNL1        0.0684
     21 CL         62.8410   80.5265   12.0371 Cl      1  UNL1       -0.0814
     22 C          62.4441   82.7001   13.4036 C.ar    1  UNL1        0.0712
     23 CL         61.9303   81.8840   14.5525 Cl      1  UNL1       -0.0813
     24 C          62.5026   84.1951   13.5125 C.ar    1  UNL1        0.0497
@<TRIPOS>UNITY_ATOM_ATTR
8 1
charge 1
9 1
charge -1
@<TRIPOS>BOND
     1    11    12   am
     2    12    13    2
     3    12    10    1
     4    10     8    1
     5     8     9    2
     6     8     7    1
     7     7     1    1
     8     1     2   ar
     9     2     3   ar
    10     3     4   ar
    11     4     5   ar
    12     5     6   ar
    13     6    16    1
    14    16    17    1
    15    17    18   ar
    16    18    19   ar
    17    19    20   ar
    18    20    21    1
    19    20    22   ar
    20    22    23    1
    21    22    24   ar
    22     6     1   ar
    23    24    17   ar
    24    11    14    1
    25    11    15    1
