@<TRIPOS>MOLECULE
*****
 36 39 0 0 0
SMALL
GASTEIGER

@<TRIPOS>ATOM
      1 C          59.9042   91.4356    4.5150 C.ar    1  UNL1       -0.0044
      2 C          61.3527   91.0716    4.3755 C.ar    1  UNL1       -0.0014
      3 C          62.1603   91.6293    3.2412 C.ar    1  UNL1        0.0144
      4 C          61.5195   92.5509    2.2463 C.ar    1  UNL1        0.0516
      5 C          60.0710   92.9149    2.3857 C.ar    1  UNL1        0.0144
      6 C          59.2633   92.3573    3.5200 C.ar    1  UNL1       -0.0014
      7 N          62.3271   93.1086    1.1119 N.am    1  UNL1       -0.2681
      8 C          61.8697   92.9105   -0.3028 C.2     1  UNL1        0.3077
      9 O          60.6047   92.1549   -0.5832 O.2     1  UNL1       -0.2522
     10 N          62.6774   93.4682   -1.4372 N.am    1  UNL1       -0.2632
     11 C          62.5453   93.4731   -2.9314 C.3     1  UNL1        0.1010
     12 C          63.8195   94.2568   -3.0414 C.3     1  UNL1        0.0636
     13 C          63.9517   94.2519   -1.5472 C.3     1  UNL1        0.1010
     14 H          63.1574   93.6045    1.2960 H       1  UNL1        0.1564
     15 C          64.6272   94.8145   -4.1757 C.ar    1  UNL1        0.0012
     16 C          64.7919   96.2983   -4.3208 C.ar    1  UNL1        0.0948
     17 N          65.5995   96.8559   -5.4551 N.ar    1  UNL1       -0.2414
     18 C          66.2424   95.9298   -6.4445 C.ar    1  UNL1        0.1129
     19 C          66.0777   94.4459   -6.2994 C.ar    1  UNL1        0.0607
     20 N          66.7207   93.5197   -7.2888 N.pl3   1  UNL1       -0.3558
     21 C          65.2701   93.8883   -5.1651 C.ar    1  UNL1        0.0130
     22 H          67.2508   93.8857   -8.0333 H       1  UNL1        0.1424
     23 H          66.6126   92.5458   -7.1936 H       1  UNL1        0.1424
     24 C          57.5991   90.8574    5.5648 C.3     1  UNL1        0.0262
     25 C          59.0966   90.8779    5.6493 C.3     1  UNL1        0.0944
     26 N          59.7865   90.3408    6.8682 N.am    1  UNL1       -0.2987
     27 C          59.4431   88.9746    7.3835 C.2     1  UNL1        0.2461
     28 O          58.4099   88.1455    6.6799 O.2     1  UNL1       -0.2701
     29 H          60.4647   90.8849    7.3300 H       1  UNL1        0.1500
     30 C          60.1330   88.4374    8.6023 C.ar    1  UNL1        0.0556
     31 C          60.3881   86.9650    8.7321 C.ar    1  UNL1        0.0047
     32 C          61.0779   86.4279    9.9509 C.ar    1  UNL1        0.0025
     33 C          61.5127   87.3632   11.0400 C.ar    1  UNL1        0.0296
     34 C          61.2577   88.8357   10.9102 C.ar    1  UNL1        0.1403
     35 F          61.6925   89.7710   11.9993 F       1  UNL1       -0.2042
     36 C          60.5678   89.3727    9.6914 C.ar    1  UNL1        0.0341
@<TRIPOS>BOND
     1    25    24    1
     2    25    26    1
     3    26    27   am
     4    27    28    2
     5    27    30    1
     6    30    31   ar
     7    31    32   ar
     8    32    33   ar
     9    33    34   ar
    10    34    35    1
    11    34    36   ar
    12    25     1    1
    13     1     2   ar
    14     2     3   ar
    15     3     4   ar
    16     4     7    1
    17     7     8   am
    18     8     9    2
    19     8    10   am
    20    10    11    1
    21    11    12    1
    22    12    15    1
    23    15    16   ar
    24    16    17   ar
    25    17    18   ar
    26    18    19   ar
    27    19    20    1
    28    19    21   ar
    29    12    13    1
    30     4     5   ar
    31     5     6   ar
    32    36    30   ar
    33     6     1   ar
    34    13    10    1
    35    21    15   ar
    36    26    29    1
    37     7    14    1
    38    20    22    1
    39    20    23    1
@<TRIPOS>MOLECULE
*****
 36 39 0 0 0
SMALL
GASTEIGER

@<TRIPOS>ATOM
      1 C          59.7858   91.1703    4.8131 C.ar    1  UNL1       -0.0044
      2 C          58.9575   92.1205    4.0003 C.ar    1  UNL1       -0.0014
      3 C          59.5728   92.8520    2.8443 C.ar    1  UNL1        0.0144
      4 C          61.0166   92.6331    2.5011 C.ar    1  UNL1        0.0516
      5 C          61.8450   91.6828    3.3140 C.ar    1  UNL1        0.0144
      6 C          61.2296   90.9514    4.4700 C.ar    1  UNL1       -0.0014
      7 N          61.6319   93.3645    1.3451 N.am    1  UNL1       -0.2681
      8 C          61.3861   92.8928   -0.0574 C.2     1  UNL1        0.3077
      9 O          60.5249   91.6897   -0.3038 O.2     1  UNL1       -0.2522
     10 N          62.0015   93.6242   -1.2134 N.am    1  UNL1       -0.2632
     11 C          61.9847   93.4577   -2.7040 C.3     1  UNL1        0.1010
     12 C          62.8717   94.6586   -2.8482 C.3     1  UNL1        0.0636
     13 C          62.8886   94.8252   -1.3576 C.3     1  UNL1        0.1010
     14 H          62.1972   94.1542    1.5069 H       1  UNL1        0.1564
     15 C          63.4871   95.3900   -4.0042 C.ar    1  UNL1        0.0012
     16 C          62.6460   95.7639   -5.1886 C.ar    1  UNL1        0.0948
     17 N          63.2614   96.4953   -6.3446 N.ar    1  UNL1       -0.2414
     18 C          64.7179   96.8529   -6.3162 C.ar    1  UNL1        0.1129
     19 C          65.5589   96.4791   -5.1318 C.ar    1  UNL1        0.0607
     20 N          67.0154   96.8367   -5.1034 N.pl3   1  UNL1       -0.3558
     21 C          64.9435   95.7476   -3.9758 C.ar    1  UNL1        0.0130
     22 H          67.4194   97.3167   -5.8621 H       1  UNL1        0.1424
     23 H          67.5675   96.5913   -4.3260 H       1  UNL1        0.1424
     24 C          57.7025   90.1304    5.9658 C.3     1  UNL1        0.0262
     25 C          59.1704   90.4389    5.9691 C.3     1  UNL1        0.0944
     26 N          60.0231   90.0158    7.1286 N.am    1  UNL1       -0.2987
     27 C          59.7362   88.7266    7.8395 C.2     1  UNL1        0.2461
     28 O          58.5967   87.8603    7.3911 O.2     1  UNL1       -0.2701
     29 H          60.7709   90.5844    7.4229 H       1  UNL1        0.1500
     30 C          60.5888   88.3036    8.9989 C.ar    1  UNL1        0.0556
     31 C          61.3396   89.3316    9.7922 C.ar    1  UNL1        0.0047
     32 C          62.1921   88.9086   10.9516 C.ar    1  UNL1        0.0025
     33 C          62.2939   87.4575   11.3176 C.ar    1  UNL1        0.0296
     34 C          61.5432   86.4295   10.5243 C.ar    1  UNL1        0.1403
     35 F          61.6450   84.9784   10.8903 F       1  UNL1       -0.2042
     36 C          60.6906   86.8525    9.3649 C.ar    1  UNL1        0.0341
@<TRIPOS>BOND
     1    25    24    1
     2    25    26    1
     3    26    27   am
     4    27    28    2
     5    27    30    1
     6    30    31   ar
     7    31    32   ar
     8    32    33   ar
     9    33    34   ar
    10    34    35    1
    11    34    36   ar
    12    25     1    1
    13     1     2   ar
    14     2     3   ar
    15     3     4   ar
    16     4     7    1
    17     7     8   am
    18     8     9    2
    19     8    10   am
    20    10    11    1
    21    11    12    1
    22    12    15    1
    23    15    16   ar
    24    16    17   ar
    25    17    18   ar
    26    18    19   ar
    27    19    20    1
    28    19    21   ar
    29    12    13    1
    30     4     5   ar
    31     5     6   ar
    32    36    30   ar
    33     6     1   ar
    34    13    10    1
    35    21    15   ar
    36    26    29    1
    37     7    14    1
    38    20    22    1
    39    20    23    1
@<TRIPOS>MOLECULE
*****
 36 39 0 0 0
SMALL
GASTEIGER

@<TRIPOS>ATOM
      1 C          65.3176   91.6683   13.6806 C.ar    1  UNL1       -0.0044
      2 C          64.4680   91.2838   12.5058 C.ar    1  UNL1       -0.0014
      3 C          63.8768   89.9075   12.4262 C.ar    1  UNL1        0.0144
      4 C          64.1351   88.9157   13.5214 C.ar    1  UNL1        0.0516
      5 C          64.9848   89.3002   14.6963 C.ar    1  UNL1        0.0144
      6 C          65.5761   90.6765   14.7759 C.ar    1  UNL1       -0.0014
      7 N          63.5439   87.5395   13.4418 N.am    1  UNL1       -0.2681
      8 C          64.2102   86.3951   14.1462 C.2     1  UNL1        0.3077
      9 O          65.4678   86.6269   14.9301 O.2     1  UNL1       -0.2522
     10 N          63.6190   85.0188   14.0666 N.am    1  UNL1       -0.2632
     11 C          63.9864   83.6730   14.6180 C.3     1  UNL1        0.1010
     12 C          62.7828   83.0725   13.9540 C.3     1  UNL1        0.0636
     13 C          62.4154   84.4182   13.4026 C.3     1  UNL1        0.1010
     14 H          62.7185   87.3874   12.9272 H       1  UNL1        0.1564
     15 C          62.1916   81.6962   13.8744 C.ar    1  UNL1        0.0012
     16 C          63.0361   80.5422   13.4218 C.ar    1  UNL1        0.0948
     17 N          62.4449   79.1659   13.3422 N.ar    1  UNL1       -0.2414
     18 C          61.0091   78.9437   13.7152 C.ar    1  UNL1        0.1129
     19 C          60.1646   80.0978   14.1678 C.ar    1  UNL1        0.0607
     20 N          58.7287   79.8756   14.5409 N.pl3   1  UNL1       -0.3558
     21 C          60.7558   81.4740   14.2474 C.ar    1  UNL1        0.0130
     22 H          58.3407   78.9723   14.4886 H       1  UNL1        0.1424
     23 H          58.1745   80.6331   14.8379 H       1  UNL1        0.1424
     24 C          66.7046   93.4504   14.9652 C.3     1  UNL1        0.0262
     25 C          65.9089   93.0445   13.7602 C.3     1  UNL1        0.0944
     26 N          65.7044   94.0149   12.6347 N.am    1  UNL1       -0.2987
     27 C          66.5767   93.9450   11.4164 C.2     1  UNL1        0.2461
     28 O          67.6534   92.9048   11.3235 O.2     1  UNL1       -0.2701
     29 H          64.9977   94.6976   12.6956 H       1  UNL1        0.1500
     30 C          66.3722   94.9154   10.2909 C.ar    1  UNL1        0.0556
     31 C          65.0466   95.5958   10.1187 C.ar    1  UNL1        0.0047
     32 C          64.8422   96.5661    8.9933 C.ar    1  UNL1        0.0025
     33 C          65.9634   96.8560    8.0400 C.ar    1  UNL1        0.0296
     34 C          67.2891   96.1756    8.2122 C.ar    1  UNL1        0.1403
     35 F          68.4103   96.4656    7.2589 F       1  UNL1       -0.2042
     36 C          67.4935   95.2053    9.3376 C.ar    1  UNL1        0.0341
@<TRIPOS>BOND
     1    25    24    1
     2    25    26    1
     3    26    27   am
     4    27    28    2
     5    27    30    1
     6    30    31   ar
     7    31    32   ar
     8    32    33   ar
     9    33    34   ar
    10    34    35    1
    11    34    36   ar
    12    25     1    1
    13     1     2   ar
    14     2     3   ar
    15     3     4   ar
    16     4     7    1
    17     7     8   am
    18     8     9    2
    19     8    10   am
    20    10    11    1
    21    11    12    1
    22    12    15    1
    23    15    16   ar
    24    16    17   ar
    25    17    18   ar
    26    18    19   ar
    27    19    20    1
    28    19    21   ar
    29    12    13    1
    30     4     5   ar
    31     5     6   ar
    32    36    30   ar
    33     6     1   ar
    34    13    10    1
    35    21    15   ar
    36    26    29    1
    37     7    14    1
    38    20    22    1
    39    20    23    1
@<TRIPOS>MOLECULE
*****
 36 39 0 0 0
SMALL
GASTEIGER

@<TRIPOS>ATOM
      1 C          59.0910   95.0762   -0.1568 C.ar    1  UNL1       -0.0044
      2 C          58.6830   93.6335   -0.2008 C.ar    1  UNL1       -0.0014
      3 C          59.0017   92.7284    0.9522 C.ar    1  UNL1        0.0144
      4 C          59.7283   93.2662    2.1492 C.ar    1  UNL1        0.0516
      5 C          60.1364   94.7090    2.1932 C.ar    1  UNL1        0.0144
      6 C          59.8177   95.6140    1.0402 C.ar    1  UNL1       -0.0014
      7 N          60.0470   92.3611    3.3021 N.am    1  UNL1       -0.2681
      8 C          58.9413   91.8232    4.1612 C.2     1  UNL1        0.3077
      9 O          57.5170   92.1902    3.8673 O.2     1  UNL1       -0.2522
     10 N          59.2600   90.9181    5.3142 N.am    1  UNL1       -0.2632
     11 C          58.4524   90.2084    6.3602 C.3     1  UNL1        0.1010
     12 C          59.7107   89.6382    6.9447 C.3     1  UNL1        0.0636
     13 C          60.5183   90.3479    5.8988 C.3     1  UNL1        0.1010
     14 H          60.9819   92.1202    3.4950 H       1  UNL1        0.1564
     15 C          60.0293   88.7332    8.0977 C.ar    1  UNL1        0.0012
     16 C          60.0134   87.2451    7.9098 C.ar    1  UNL1        0.0948
     17 N          60.3321   86.3401    9.0628 N.ar    1  UNL1       -0.2414
     18 C          60.6667   86.9231   10.4037 C.ar    1  UNL1        0.1129
     19 C          60.6826   88.4112   10.5916 C.ar    1  UNL1        0.0607
     20 N          61.0172   88.9943   11.9326 N.pl3   1  UNL1       -0.3558
     21 C          60.3639   89.3162    9.4386 C.ar    1  UNL1        0.0130
     22 H          61.2263   88.4003   12.6893 H       1  UNL1        0.1424
     23 H          61.0276   89.9710   12.0559 H       1  UNL1        0.1424
     24 C          59.8823   96.5926   -2.1124 C.3     1  UNL1        0.0262
     25 C          58.7723   95.9812   -1.3098 C.3     1  UNL1        0.0944
     26 N          57.3436   96.2749   -1.6601 N.am    1  UNL1       -0.2987
     27 C          56.6075   95.3841   -2.6164 C.2     1  UNL1        0.2461
     28 O          57.3001   94.1996   -3.2224 O.2     1  UNL1       -0.2701
     29 H          56.8891   97.0524   -1.2624 H       1  UNL1        0.1500
     30 C          55.1788   95.6778   -2.9667 C.ar    1  UNL1        0.0556
     31 C          54.1434   95.7619   -1.8848 C.ar    1  UNL1        0.0047
     32 C          52.7148   96.0556   -2.2351 C.ar    1  UNL1        0.0025
     33 C          52.3216   96.2652   -3.6674 C.ar    1  UNL1        0.0296
     34 C          53.3571   96.1811   -4.7494 C.ar    1  UNL1        0.1403
     35 F          52.9640   96.3907   -6.1817 F       1  UNL1       -0.2042
     36 C          54.7857   95.8874   -4.3990 C.ar    1  UNL1        0.0341
@<TRIPOS>BOND
     1    25    24    1
     2    25    26    1
     3    26    27   am
     4    27    28    2
     5    27    30    1
     6    30    31   ar
     7    31    32   ar
     8    32    33   ar
     9    33    34   ar
    10    34    35    1
    11    34    36   ar
    12    25     1    1
    13     1     2   ar
    14     2     3   ar
    15     3     4   ar
    16     4     7    1
    17     7     8   am
    18     8     9    2
    19     8    10   am
    20    10    11    1
    21    11    12    1
    22    12    15    1
    23    15    16   ar
    24    16    17   ar
    25    17    18   ar
    26    18    19   ar
    27    19    20    1
    28    19    21   ar
    29    12    13    1
    30     4     5   ar
    31     5     6   ar
    32    36    30   ar
    33     6     1   ar
    34    13    10    1
    35    21    15   ar
    36    26    29    1
    37     7    14    1
    38    20    22    1
    39    20    23    1
@<TRIPOS>MOLECULE
*****
 36 39 0 0 0
SMALL
GASTEIGER

@<TRIPOS>ATOM
      1 C          59.5658   90.0897    6.6240 C.ar    1  UNL1       -0.0044
      2 C          58.1826   90.4693    6.1849 C.ar    1  UNL1       -0.0014
      3 C          57.9834   91.2284    4.9066 C.ar    1  UNL1        0.0144
      4 C          59.1673   91.6081    4.0674 C.ar    1  UNL1        0.0516
      5 C          60.5505   91.2285    4.5065 C.ar    1  UNL1        0.0144
      6 C          60.7498   90.4694    5.7848 C.ar    1  UNL1       -0.0014
      7 N          58.9681   92.3672    2.7892 N.am    1  UNL1       -0.2681
      8 C          60.1515   92.7419    1.9472 C.2     1  UNL1        0.3077
      9 O          61.5342   92.3574    2.3834 O.2     1  UNL1       -0.2522
     10 N          59.9523   93.5011    0.6689 N.am    1  UNL1       -0.2632
     11 C          60.8591   94.0339   -0.4007 C.3     1  UNL1        0.1010
     12 C          59.6705   94.5747   -1.1389 C.3     1  UNL1        0.0636
     13 C          58.7637   94.0419   -0.0694 C.3     1  UNL1        0.1010
     14 H          58.0606   92.6196    2.5029 H       1  UNL1        0.1564
     15 C          59.4713   95.3338   -2.4171 C.ar    1  UNL1        0.0012
     16 C          60.6570   95.8659   -3.1660 C.ar    1  UNL1        0.0948
     17 N          60.4578   96.6251   -4.4443 N.ar    1  UNL1       -0.2414
     18 C          59.0728   96.8521   -4.9737 C.ar    1  UNL1        0.1129
     19 C          57.8871   96.3200   -4.2248 C.ar    1  UNL1        0.0607
     20 N          56.5021   96.5471   -4.7542 N.pl3   1  UNL1       -0.3558
     21 C          58.0863   95.5609   -2.9465 C.ar    1  UNL1        0.0130
     22 H          56.3713   97.0454   -5.5931 H       1  UNL1        0.1424
     23 H          55.7238   96.1978   -4.2626 H       1  UNL1        0.1424
     24 C          59.0910   88.0053    8.1003 C.3     1  UNL1        0.0262
     25 C          59.7650   89.3306    7.9023 C.3     1  UNL1        0.0944
     26 N          60.6383   89.8968    8.9825 N.am    1  UNL1       -0.2987
     27 C          61.6618   89.0282    9.6518 C.2     1  UNL1        0.2461
     28 O          61.8121   87.5935    9.2409 O.2     1  UNL1       -0.2701
     29 H          60.5396   90.8385    9.2522 H       1  UNL1        0.1500
     30 C          62.5351   89.5944   10.7320 C.ar    1  UNL1        0.0556
     31 C          63.1084   90.9729   10.5875 C.ar    1  UNL1        0.0047
     32 C          63.9817   91.5391   11.6677 C.ar    1  UNL1        0.0025
     33 C          64.2816   90.7267   12.8925 C.ar    1  UNL1        0.0296
     34 C          63.7082   89.3482   13.0370 C.ar    1  UNL1        0.1403
     35 F          64.0081   88.5358   14.2618 F       1  UNL1       -0.2042
     36 C          62.8350   88.7821   11.9568 C.ar    1  UNL1        0.0341
@<TRIPOS>BOND
     1    25    24    1
     2    25    26    1
     3    26    27   am
     4    27    28    2
     5    27    30    1
     6    30    31   ar
     7    31    32   ar
     8    32    33   ar
     9    33    34   ar
    10    34    35    1
    11    34    36   ar
    12    25     1    1
    13     1     2   ar
    14     2     3   ar
    15     3     4   ar
    16     4     7    1
    17     7     8   am
    18     8     9    2
    19     8    10   am
    20    10    11    1
    21    11    12    1
    22    12    15    1
    23    15    16   ar
    24    16    17   ar
    25    17    18   ar
    26    18    19   ar
    27    19    20    1
    28    19    21   ar
    29    12    13    1
    30     4     5   ar
    31     5     6   ar
    32    36    30   ar
    33     6     1   ar
    34    13    10    1
    35    21    15   ar
    36    26    29    1
    37     7    14    1
    38    20    22    1
    39    20    23    1
@<TRIPOS>MOLECULE
*****
 36 39 0 0 0
SMALL
GASTEIGER

@<TRIPOS>ATOM
      1 C          60.0735   88.2479    9.2600 C.ar    1  UNL1       -0.0044
      2 C          59.4462   87.5832    8.0707 C.ar    1  UNL1       -0.0014
      3 C          59.1879   88.3711    6.8207 C.ar    1  UNL1        0.0144
      4 C          59.5570   89.8237    6.7600 C.ar    1  UNL1        0.0516
      5 C          60.1844   90.4884    7.9494 C.ar    1  UNL1        0.0144
      6 C          60.4426   89.7005    9.1994 C.ar    1  UNL1       -0.0014
      7 N          59.2988   90.6116    5.5100 N.am    1  UNL1       -0.2681
      8 C          60.4461   91.2019    4.7451 C.2     1  UNL1        0.3077
      9 O          61.8516   91.0043    5.2302 O.2     1  UNL1       -0.2522
     10 N          60.1878   91.9898    3.4951 N.am    1  UNL1       -0.2632
     11 C          61.0475   92.7073    2.4969 C.3     1  UNL1        0.1010
     12 C          59.8226   93.1040    1.7273 C.3     1  UNL1        0.0636
     13 C          58.9630   92.3866    2.7254 C.3     1  UNL1        0.1010
     14 H          58.3762   90.7412    5.1916 H       1  UNL1        0.1564
     15 C          59.5644   93.8919    0.4773 C.ar    1  UNL1        0.0012
     16 C          59.5039   95.3896    0.5338 C.ar    1  UNL1        0.0948
     17 N          59.2457   96.1775   -0.7162 N.ar    1  UNL1       -0.2414
     18 C          59.0479   95.4677   -2.0227 C.ar    1  UNL1        0.1129
     19 C          59.1084   93.9700   -2.0793 C.ar    1  UNL1        0.0607
     20 N          58.9107   93.2602   -3.3858 N.pl3   1  UNL1       -0.3558
     21 C          59.3667   93.1821   -0.8292 C.ar    1  UNL1        0.0130
     22 H          58.7412   93.7773   -4.2063 H       1  UNL1        0.1424
     23 H          58.9504   92.2772   -3.4229 H       1  UNL1        0.1424
     24 C          59.9618   88.0314   11.8466 C.3     1  UNL1        0.0262
     25 C          60.3317   87.4600   10.5100 C.3     1  UNL1        0.0944
     26 N          60.9599   86.1005   10.4234 N.am    1  UNL1       -0.2987
     27 C          62.1590   85.7735   11.2631 C.2     1  UNL1        0.2461
     28 O          62.7300   86.8059   12.1894 O.2     1  UNL1       -0.2701
     29 H          60.5851   85.4229    9.8154 H       1  UNL1        0.1500
     30 C          62.7871   84.4141   11.1764 C.ar    1  UNL1        0.0556
     31 C          63.6828   84.0739   10.0223 C.ar    1  UNL1        0.0047
     32 C          64.3109   82.7145    9.9357 C.ar    1  UNL1        0.0025
     33 C          64.0433   81.6953   11.0032 C.ar    1  UNL1        0.0296
     34 C          63.1477   82.0355   12.1573 C.ar    1  UNL1        0.1403
     35 F          62.8801   81.0163   13.2249 F       1  UNL1       -0.2042
     36 C          62.5196   83.3948   12.2439 C.ar    1  UNL1        0.0341
@<TRIPOS>BOND
     1    25    24    1
     2    25    26    1
     3    26    27   am
     4    27    28    2
     5    27    30    1
     6    30    31   ar
     7    31    32   ar
     8    32    33   ar
     9    33    34   ar
    10    34    35    1
    11    34    36   ar
    12    25     1    1
    13     1     2   ar
    14     2     3   ar
    15     3     4   ar
    16     4     7    1
    17     7     8   am
    18     8     9    2
    19     8    10   am
    20    10    11    1
    21    11    12    1
    22    12    15    1
    23    15    16   ar
    24    16    17   ar
    25    17    18   ar
    26    18    19   ar
    27    19    20    1
    28    19    21   ar
    29    12    13    1
    30     4     5   ar
    31     5     6   ar
    32    36    30   ar
    33     6     1   ar
    34    13    10    1
    35    21    15   ar
    36    26    29    1
    37     7    14    1
    38    20    22    1
    39    20    23    1
@<TRIPOS>MOLECULE
*****
 36 39 0 0 0
SMALL
GASTEIGER

@<TRIPOS>ATOM
      1 C          61.8396   95.1381   -1.0909 C.ar    1  UNL1       -0.0044
      2 C          61.2158   93.7810   -1.2297 C.ar    1  UNL1       -0.0014
      3 C          61.0870   92.8886   -0.0309 C.ar    1  UNL1        0.0144
      4 C          61.5821   93.3532    1.3066 C.ar    1  UNL1        0.0516
      5 C          62.2060   94.7103    1.4454 C.ar    1  UNL1        0.0144
      6 C          62.3348   95.6027    0.2466 C.ar    1  UNL1       -0.0014
      7 N          61.4534   92.4608    2.5053 N.am    1  UNL1       -0.2681
      8 C          60.1326   92.3290    3.2039 C.2     1  UNL1        0.3077
      9 O          58.9405   93.0897    2.7037 O.2     1  UNL1       -0.2522
     10 N          60.0039   91.4366    4.4026 N.am    1  UNL1       -0.2632
     11 C          58.8869   91.0623    5.3313 C.3     1  UNL1        0.1010
     12 C          59.8218   90.1745    6.0979 C.3     1  UNL1        0.0636
     13 C          60.9388   90.5488    5.1693 C.3     1  UNL1        0.1010
     14 H          62.2359   91.9615    2.8336 H       1  UNL1        0.1564
     15 C          59.6931   89.2821    7.2967 C.ar    1  UNL1        0.0012
     16 C          58.9990   87.9580    7.1748 C.ar    1  UNL1        0.0948
     17 N          58.8703   87.0655    8.3736 N.ar    1  UNL1       -0.2414
     18 C          59.4356   87.4973    9.6942 C.ar    1  UNL1        0.1129
     19 C          60.1297   88.8214    9.8160 C.ar    1  UNL1        0.0607
     20 N          60.6951   89.2532   11.1366 N.pl3   1  UNL1       -0.3558
     21 C          60.2584   89.7138    8.6172 C.ar    1  UNL1        0.0130
     22 H          60.6106   88.6675   11.9234 H       1  UNL1        0.1424
     23 H          61.1506   90.1223   11.2166 H       1  UNL1        0.1424
     24 C          63.2062   96.8558   -2.4808 C.3     1  UNL1        0.0262
     25 C          61.9683   96.0305   -2.2897 C.3     1  UNL1        0.0944
     26 N          60.8591   96.0976   -3.2973 N.am    1  UNL1       -0.2987
     27 C          60.8861   95.2055   -4.5029 C.2     1  UNL1        0.2461
     28 O          62.0222   94.2463   -4.7009 O.2     1  UNL1       -0.2701
     29 H          60.1135   96.7271   -3.1674 H       1  UNL1        0.1500
     30 C          59.7769   95.2726   -5.5105 C.ar    1  UNL1        0.0556
     31 C          59.6655   96.4559   -6.4256 C.ar    1  UNL1        0.0047
     32 C          58.5563   96.5229   -7.4331 C.ar    1  UNL1        0.0025
     33 C          57.5586   95.4067   -7.5256 C.ar    1  UNL1        0.0296
     34 C          57.6700   94.2234   -6.6106 C.ar    1  UNL1        0.1403
     35 F          56.6723   93.1072   -6.7031 F       1  UNL1       -0.2042
     36 C          58.7791   94.1564   -5.6030 C.ar    1  UNL1        0.0341
@<TRIPOS>BOND
     1    25    24    1
     2    25    26    1
     3    26    27   am
     4    27    28    2
     5    27    30    1
     6    30    31   ar
     7    31    32   ar
     8    32    33   ar
     9    33    34   ar
    10    34    35    1
    11    34    36   ar
    12    25     1    1
    13     1     2   ar
    14     2     3   ar
    15     3     4   ar
    16     4     7    1
    17     7     8   am
    18     8     9    2
    19     8    10   am
    20    10    11    1
    21    11    12    1
    22    12    15    1
    23    15    16   ar
    24    16    17   ar
    25    17    18   ar
    26    18    19   ar
    27    19    20    1
    28    19    21   ar
    29    12    13    1
    30     4     5   ar
    31     5     6   ar
    32    36    30   ar
    33     6     1   ar
    34    13    10    1
    35    21    15   ar
    36    26    29    1
    37     7    14    1
    38    20    22    1
    39    20    23    1
@<TRIPOS>MOLECULE
*****
 36 39 0 0 0
SMALL
GASTEIGER

@<TRIPOS>ATOM
      1 C          58.7887   90.3951    5.8837 C.ar    1  UNL1       -0.0044
      2 C          60.0407   90.8380    6.5810 C.ar    1  UNL1       -0.0014
      3 C          60.5942   90.0276    7.7154 C.ar    1  UNL1        0.0144
      4 C          59.8957   88.7741    8.1524 C.ar    1  UNL1        0.0516
      5 C          58.6437   88.3311    7.4550 C.ar    1  UNL1        0.0144
      6 C          58.0902   89.1416    6.3207 C.ar    1  UNL1       -0.0014
      7 N          60.4492   87.9637    9.2867 N.am    1  UNL1       -0.2681
      8 C          61.1927   86.6914    9.0067 C.2     1  UNL1        0.3077
      9 O          61.3827   86.2296    7.5923 O.2     1  UNL1       -0.2522
     10 N          61.7462   85.8809   10.1410 N.am    1  UNL1       -0.2632
     11 C          62.5188   84.5998   10.2514 C.3     1  UNL1        0.1010
     12 C          62.5290   84.7347   11.7452 C.3     1  UNL1        0.0636
     13 C          61.7565   86.0158   11.6350 C.3     1  UNL1        0.1010
     14 H          60.3245   88.2668   10.2151 H       1  UNL1        0.1564
     15 C          63.0825   83.9243   12.8796 C.ar    1  UNL1        0.0012
     16 C          63.9518   84.5767   13.9133 C.ar    1  UNL1        0.0948
     17 N          64.5053   83.7662   15.0477 N.ar    1  UNL1       -0.2414
     18 C          64.1895   82.3033   15.1483 C.ar    1  UNL1        0.1129
     19 C          63.3203   81.6509   14.1146 C.ar    1  UNL1        0.0607
     20 N          63.0045   80.1879   14.2152 N.pl3   1  UNL1       -0.3558
     21 C          62.7668   82.4614   12.9802 C.ar    1  UNL1        0.0130
     22 H          63.3677   79.6560   14.9597 H       1  UNL1        0.1424
     23 H          62.4339   79.7597   13.5367 H       1  UNL1        0.1424
     24 C          56.8079   91.6655    4.7827 C.3     1  UNL1        0.0262
     25 C          58.2352   91.2055    4.7493 C.3     1  UNL1        0.0944
     26 N          59.1091   91.5561    3.5816 N.am    1  UNL1       -0.2987
     27 C          59.7235   92.9212    3.4877 C.2     1  UNL1        0.2461
     28 O          59.4641   93.9359    4.5616 O.2     1  UNL1       -0.2701
     29 H          59.2794   90.8901    2.8768 H       1  UNL1        0.1500
     30 C          60.5974   93.2717    2.3200 C.ar    1  UNL1        0.0556
     31 C          60.0449   94.0850    1.1872 C.ar    1  UNL1        0.0047
     32 C          60.9188   94.4354    0.0195 C.ar    1  UNL1        0.0025
     33 C          62.3452   93.9726   -0.0153 C.ar    1  UNL1        0.0296
     34 C          62.8977   93.1594    1.1175 C.ar    1  UNL1        0.1403
     35 F          64.3241   92.6966    1.0827 F       1  UNL1       -0.2042
     36 C          62.0238   92.8089    2.2852 C.ar    1  UNL1        0.0341
@<TRIPOS>BOND
     1    25    24    1
     2    25    26    1
     3    26    27   am
     4    27    28    2
     5    27    30    1
     6    30    31   ar
     7    31    32   ar
     8    32    33   ar
     9    33    34   ar
    10    34    35    1
    11    34    36   ar
    12    25     1    1
    13     1     2   ar
    14     2     3   ar
    15     3     4   ar
    16     4     7    1
    17     7     8   am
    18     8     9    2
    19     8    10   am
    20    10    11    1
    21    11    12    1
    22    12    15    1
    23    15    16   ar
    24    16    17   ar
    25    17    18   ar
    26    18    19   ar
    27    19    20    1
    28    19    21   ar
    29    12    13    1
    30     4     5   ar
    31     5     6   ar
    32    36    30   ar
    33     6     1   ar
    34    13    10    1
    35    21    15   ar
    36    26    29    1
    37     7    14    1
    38    20    22    1
    39    20    23    1
@<TRIPOS>MOLECULE
*****
 36 39 0 0 0
SMALL
GASTEIGER

@<TRIPOS>ATOM
      1 C          64.7107   91.0488   14.2499 C.ar    1  UNL1       -0.0044
      2 C          63.9497   90.8192   12.9779 C.ar    1  UNL1       -0.0014
      3 C          63.5700   89.4259   12.5722 C.ar    1  UNL1        0.0144
      4 C          63.9513   88.2623   13.4385 C.ar    1  UNL1        0.0516
      5 C          64.7123   88.4919   14.7106 C.ar    1  UNL1        0.0144
      6 C          65.0920   89.8852   15.1163 C.ar    1  UNL1       -0.0014
      7 N          63.5716   86.8690   13.0328 N.am    1  UNL1       -0.2681
      8 C          64.2142   85.6912   13.7034 C.2     1  UNL1        0.3077
      9 O          65.2364   85.9066   14.7797 O.2     1  UNL1       -0.2522
     10 N          63.8345   84.2979   13.2976 N.am    1  UNL1       -0.2632
     11 C          64.2457   82.9197   13.7239 C.3     1  UNL1        0.1010
     12 C          63.2975   82.3275   12.7239 C.3     1  UNL1        0.0636
     13 C          62.8863   83.7056   12.2975 C.3     1  UNL1        0.1010
     14 H          62.9006   86.7276   12.3263 H       1  UNL1        0.1564
     15 C          62.9178   80.9343   12.3181 C.ar    1  UNL1        0.0012
     16 C          62.3303   79.9930   13.3275 C.ar    1  UNL1        0.0948
     17 N          61.9506   78.5997   12.9217 N.ar    1  UNL1       -0.2414
     18 C          62.1584   78.1477   11.5067 C.ar    1  UNL1        0.1129
     19 C          62.7459   79.0890   10.4973 C.ar    1  UNL1        0.0607
     20 N          62.9538   78.6370    9.0822 N.pl3   1  UNL1       -0.3558
     21 C          63.1256   80.4822   10.9031 C.ar    1  UNL1        0.0130
     22 H          62.7046   77.7225    8.8159 H       1  UNL1        0.1424
     23 H          63.3394   79.2548    8.4197 H       1  UNL1        0.1424
     24 C          65.2704   92.7781   16.1064 C.3     1  UNL1        0.0262
     25 C          65.0904   92.4421   14.6557 C.3     1  UNL1        0.0944
     26 N          65.2901   93.4995   13.6105 N.am    1  UNL1       -0.2987
     27 C          66.3237   93.3103   12.5402 C.2     1  UNL1        0.2461
     28 O          67.1577   92.0637   12.5148 O.2     1  UNL1       -0.2701
     29 H          64.7428   94.3176   13.6272 H       1  UNL1        0.1500
     30 C          66.5235   94.3676   11.4951 C.ar    1  UNL1        0.0556
     31 C          66.1941   95.7982   11.8030 C.ar    1  UNL1        0.0047
     32 C          66.3938   96.8555   10.7579 C.ar    1  UNL1        0.0025
     33 C          66.9229   96.4822    9.4049 C.ar    1  UNL1        0.0296
     34 C          67.2523   95.0516    9.0970 C.ar    1  UNL1        0.1403
     35 F          67.7815   94.6782    7.7439 F       1  UNL1       -0.2042
     36 C          67.0526   93.9943   10.1420 C.ar    1  UNL1        0.0341
@<TRIPOS>BOND
     1    25    24    1
     2    25    26    1
     3    26    27   am
     4    27    28    2
     5    27    30    1
     6    30    31   ar
     7    31    32   ar
     8    32    33   ar
     9    33    34   ar
    10    34    35    1
    11    34    36   ar
    12    25     1    1
    13     1     2   ar
    14     2     3   ar
    15     3     4   ar
    16     4     7    1
    17     7     8   am
    18     8     9    2
    19     8    10   am
    20    10    11    1
    21    11    12    1
    22    12    15    1
    23    15    16   ar
    24    16    17   ar
    25    17    18   ar
    26    18    19   ar
    27    19    20    1
    28    19    21   ar
    29    12    13    1
    30     4     5   ar
    31     5     6   ar
    32    36    30   ar
    33     6     1   ar
    34    13    10    1
    35    21    15   ar
    36    26    29    1
    37     7    14    1
    38    20    22    1
    39    20    23    1
