@<TRIPOS>MOLECULE
*****
 32 35 0 0 0
SMALL
GASTEIGER

@<TRIPOS>ATOM
      1 N          64.0215   90.1334   13.7936 N.3     1  UNL1       -0.2643
      2 C          64.9334   91.3088   13.9857 C.3     1  UNL1        0.0981
      3 C          65.5124   91.5955   15.3394 C.3     1  UNL1        0.0224
      4 C          66.4243   92.7708   15.5315 C.3     1  UNL1        0.0065
      5 C          66.7573   93.6595   14.3699 C.3     1  UNL1        0.0277
      6 C          66.1784   93.3728   13.0162 C.ar    1  UNL1       -0.0073
      7 C          66.5114   94.2614   11.8544 C.ar    1  UNL1       -0.0015
      8 C          65.9324   93.9747   10.5007 C.ar    1  UNL1        0.0203
      9 C          65.0205   92.7994   10.3086 C.ar    1  UNL1        0.0985
     10 N          64.6875   91.9107   11.4703 N.ar    1  UNL1       -0.2471
     11 C          65.2664   92.1974   12.8241 C.ar    1  UNL1        0.0695
     12 C          64.4011   88.7915   14.3458 C.3     1  UNL1        0.0971
     13 C          63.1279   89.2464   16.5644 C.3     1  UNL1        0.0298
     14 C          63.7467   88.2825   15.5959 C.2     1  UNL1       -0.0033
     15 C          63.7112   86.8096   15.8776 C.2     1  UNL1        0.1267
     16 F          64.3300   85.8457   14.9091 F       1  UNL1       -0.2080
     17 C          63.0569   86.3006   17.1277 C.3     1  UNL1        0.1220
     18 N          61.5737   86.0796   17.1613 N.3     1  UNL1       -0.3156
     19 H          61.0943   86.9753   17.0703 H       1  UNL1        0.1192
     20 H          61.3148   85.6438   18.0464 H       1  UNL1        0.1192
     21 C          62.7300   90.3000   13.0492 C.3     1  UNL1        0.0888
     22 C          62.3048   89.2700   12.0450 C.3     1  UNL1        0.0748
     23 C          61.4048   89.6568   10.9090 C.3     1  UNL1        0.0432
     24 C          60.9797   88.6268    9.9048 C.ar    1  UNL1       -0.0234
     25 C          60.0797   89.0136    8.7688 C.ar    1  UNL1       -0.0045
     26 C          59.6546   87.9836    7.7646 C.ar    1  UNL1       -0.0003
     27 C          60.1295   86.5669    7.8964 C.ar    1  UNL1       -0.0003
     28 C          61.0294   86.1801    9.0324 C.ar    1  UNL1       -0.0032
     29 C          61.4545   87.2101   10.0365 C.ar    1  UNL1       -0.0103
     30 C          62.3546   86.8233   11.1726 C.3     1  UNL1        0.0953
     31 N          62.7797   87.8533   12.1767 N.3     1  UNL1       -0.2934
     32 H          63.7991   87.8813   12.1563 H       1  UNL1        0.1236
@<TRIPOS>BOND
     1    13    14    1
     2    14    12    1
     3    12     1    1
     4     1    21    1
     5    22    21    1
     6    22    23    1
     7    23    24    1
     8    24    25   ar
     9    25    26   ar
    10    26    27   ar
    11    27    28   ar
    12    28    29   ar
    13    29    30    1
    14    30    31    1
    15     2     1    1
    16     2     3    1
    17     3     4    1
    18     4     5    1
    19     5     6    1
    20     6     7   ar
    21     7     8   ar
    22     8     9   ar
    23     9    10   ar
    24    10    11   ar
    25    14    15    2
    26    15    16    1
    27    15    17    1
    28    17    18    1
    29    31    22    1
    30    11     2    1
    31    29    24   ar
    32    11     6   ar
    33    31    32    1
    34    18    19    1
    35    18    20    1
@<TRIPOS>MOLECULE
*****
 32 35 0 0 0
SMALL
GASTEIGER

@<TRIPOS>ATOM
      1 N          62.1502   87.4896   10.7352 N.3     1  UNL1       -0.2643
      2 C          62.7006   88.8534   11.0305 C.3     1  UNL1        0.0981
      3 C          62.5592   89.9540   10.0213 C.3     1  UNL1        0.0224
      4 C          63.1095   91.3177   10.3167 C.3     1  UNL1        0.0065
      5 C          63.8014   91.5809   11.6213 C.3     1  UNL1        0.0277
      6 C          63.9428   90.4803   12.6305 C.ar    1  UNL1       -0.0073
      7 C          64.6346   90.7434   13.9353 C.ar    1  UNL1       -0.0015
      8 C          64.7761   89.6428   14.9445 C.ar    1  UNL1        0.0203
      9 C          64.2257   88.2790   14.6491 C.ar    1  UNL1        0.0985
     10 N          63.5339   88.0159   13.3445 N.ar    1  UNL1       -0.2471
     11 C          63.3924   89.1165   12.3352 C.ar    1  UNL1        0.0695
     12 C          60.6832   87.3126   10.4772 C.3     1  UNL1        0.0971
     13 C          60.0988   86.1407    8.2334 C.3     1  UNL1        0.0298
     14 C          60.1546   87.3809    9.0751 C.2     1  UNL1       -0.0033
     15 C          59.6819   88.6896    8.5147 C.2     1  UNL1        0.1267
     16 F          59.7378   89.9299    9.3565 F       1  UNL1       -0.2080
     17 C          59.1534   88.7580    7.1126 C.3     1  UNL1        0.1220
     18 N          59.3898   89.9836    6.2808 N.3     1  UNL1       -0.3156
     19 H          58.8910   90.7736    6.6900 H       1  UNL1        0.1192
     20 H          59.0507   89.8216    5.3326 H       1  UNL1        0.1192
     21 C          63.0668   86.3029   10.6977 C.3     1  UNL1        0.0888
     22 C          62.8249   85.1392   11.6128 C.3     1  UNL1        0.0748
     23 C          62.9718   83.7377   11.0988 C.3     1  UNL1        0.0432
     24 C          62.7299   82.5740   12.0139 C.ar    1  UNL1       -0.0234
     25 C          62.8769   81.1725   11.4999 C.ar    1  UNL1       -0.0045
     26 C          62.6349   80.0089   12.4150 C.ar    1  UNL1       -0.0003
     27 C          62.2461   80.2467   13.8440 C.ar    1  UNL1       -0.0003
     28 C          62.0991   81.6482   14.3580 C.ar    1  UNL1       -0.0032
     29 C          62.3410   82.8118   13.4430 C.ar    1  UNL1       -0.0103
     30 C          62.1941   84.2134   13.9569 C.3     1  UNL1        0.0953
     31 N          62.4360   85.3770   13.0419 N.3     1  UNL1       -0.2934
     32 H          63.1821   85.9316   13.4617 H       1  UNL1        0.1236
@<TRIPOS>BOND
     1    13    14    1
     2    14    12    1
     3    12     1    1
     4     1    21    1
     5    22    21    1
     6    22    23    1
     7    23    24    1
     8    24    25   ar
     9    25    26   ar
    10    26    27   ar
    11    27    28   ar
    12    28    29   ar
    13    29    30    1
    14    30    31    1
    15     2     1    1
    16     2     3    1
    17     3     4    1
    18     4     5    1
    19     5     6    1
    20     6     7   ar
    21     7     8   ar
    22     8     9   ar
    23     9    10   ar
    24    10    11   ar
    25    14    15    2
    26    15    16    1
    27    15    17    1
    28    17    18    1
    29    31    22    1
    30    11     2    1
    31    29    24   ar
    32    11     6   ar
    33    31    32    1
    34    18    19    1
    35    18    20    1
@<TRIPOS>MOLECULE
*****
 32 35 0 0 0
SMALL
GASTEIGER

@<TRIPOS>ATOM
      1 N          63.7861   90.1005   13.3948 N.3     1  UNL1       -0.2643
      2 C          64.5631   91.2589   12.8431 C.3     1  UNL1        0.0981
      3 C          64.4103   91.6462   11.4021 C.3     1  UNL1        0.0224
      4 C          65.1873   92.8047   10.8504 C.3     1  UNL1        0.0065
      5 C          66.1169   93.5758   11.7398 C.3     1  UNL1        0.0277
      6 C          66.2697   93.1885   13.1808 C.ar    1  UNL1       -0.0073
      7 C          67.1994   93.9597   14.0702 C.ar    1  UNL1       -0.0015
      8 C          67.3521   93.5724   15.5112 C.ar    1  UNL1        0.0203
      9 C          66.5752   92.4139   16.0629 C.ar    1  UNL1        0.0985
     10 N          65.6455   91.6428   15.1736 N.ar    1  UNL1       -0.2471
     11 C          65.4927   92.0301   13.7325 C.ar    1  UNL1        0.0695
     12 C          64.4505   89.1242   14.3197 C.3     1  UNL1        0.0971
     13 C          63.1236   89.6924   16.4799 C.3     1  UNL1        0.0298
     14 C          63.7499   88.6786   15.5689 C.2     1  UNL1       -0.0033
     15 C          63.6756   87.2190   15.9071 C.2     1  UNL1        0.1267
     16 F          64.3019   86.2052   14.9961 F       1  UNL1       -0.2080
     17 C          62.9750   86.7734   17.1563 C.3     1  UNL1        0.1220
     18 N          61.5777   86.2333   17.0806 N.3     1  UNL1       -0.3156
     19 H          60.9425   86.9740   16.7837 H       1  UNL1        0.1192
     20 H          61.2953   85.8910   17.9990 H       1  UNL1        0.1192
     21 C          62.3448   89.9183   13.0216 C.3     1  UNL1        0.0888
     22 C          61.9664   88.9472   11.9427 C.3     1  UNL1        0.0748
     23 C          61.0875   89.3891   10.8104 C.3     1  UNL1        0.0432
     24 C          60.7091   88.4180    9.7315 C.ar    1  UNL1       -0.0234
     25 C          59.8302   88.8600    8.5992 C.ar    1  UNL1       -0.0045
     26 C          59.4518   87.8889    7.5204 C.ar    1  UNL1       -0.0003
     27 C          59.9523   86.4759    7.5740 C.ar    1  UNL1       -0.0003
     28 C          60.8311   86.0339    8.7063 C.ar    1  UNL1       -0.0032
     29 C          61.2095   87.0050    9.7851 C.ar    1  UNL1       -0.0103
     30 C          62.0885   86.5631   10.9175 C.3     1  UNL1        0.0953
     31 N          62.4668   87.5341   11.9963 N.3     1  UNL1       -0.2934
     32 H          63.4856   87.5827   12.0046 H       1  UNL1        0.1236
@<TRIPOS>BOND
     1    13    14    1
     2    14    12    1
     3    12     1    1
     4     1    21    1
     5    22    21    1
     6    22    23    1
     7    23    24    1
     8    24    25   ar
     9    25    26   ar
    10    26    27   ar
    11    27    28   ar
    12    28    29   ar
    13    29    30    1
    14    30    31    1
    15     2     1    1
    16     2     3    1
    17     3     4    1
    18     4     5    1
    19     5     6    1
    20     6     7   ar
    21     7     8   ar
    22     8     9   ar
    23     9    10   ar
    24    10    11   ar
    25    14    15    2
    26    15    16    1
    27    15    17    1
    28    17    18    1
    29    31    22    1
    30    11     2    1
    31    29    24   ar
    32    11     6   ar
    33    31    32    1
    34    18    19    1
    35    18    20    1
@<TRIPOS>MOLECULE
*****
 32 35 0 0 0
SMALL
GASTEIGER

@<TRIPOS>ATOM
      1 N          61.6583   87.4965   11.3613 N.3     1  UNL1       -0.2643
      2 C          62.2950   86.3202   10.6823 C.3     1  UNL1        0.0981
      3 C          62.5635   86.3606    9.2071 C.3     1  UNL1        0.0224
      4 C          63.2001   85.1843    8.5281 C.3     1  UNL1        0.0065
      5 C          63.5682   83.9675    9.3243 C.3     1  UNL1        0.0277
      6 C          63.2997   83.9271   10.7995 C.ar    1  UNL1       -0.0073
      7 C          63.6678   82.7103   11.5958 C.ar    1  UNL1       -0.0015
      8 C          63.3992   82.6699   13.0710 C.ar    1  UNL1        0.0203
      9 C          62.7626   83.8462   13.7500 C.ar    1  UNL1        0.0985
     10 N          62.3945   85.0629   12.9537 N.ar    1  UNL1       -0.2471
     11 C          62.6631   85.1034   11.4785 C.ar    1  UNL1        0.0695
     12 C          60.2530   87.8914   11.0163 C.3     1  UNL1        0.0971
     13 C          59.9250   90.3830   10.3574 C.3     1  UNL1        0.0298
     14 C          60.0031   88.9362    9.9694 C.2     1  UNL1       -0.0033
     15 C          59.8311   88.5341    8.5345 C.2     1  UNL1        0.1267
     16 F          59.9092   87.0873    8.1466 F       1  UNL1       -0.2080
     17 C          59.5812   89.5790    7.4877 C.3     1  UNL1        0.1220
     18 N          58.7619   89.2458    6.2762 N.3     1  UNL1       -0.3156
     19 H          59.2550   88.5536    5.7121 H       1  UNL1        0.1192
     20 H          58.6126   90.0904    5.7240 H       1  UNL1        0.1192
     21 C          62.4270   88.2779   12.3852 C.3     1  UNL1        0.0888
     22 C          63.1524   89.5284   11.9850 C.3     1  UNL1        0.0748
     23 C          64.0226   90.2409   12.9775 C.3     1  UNL1        0.0432
     24 C          64.7480   91.4914   12.5774 C.ar    1  UNL1       -0.0234
     25 C          65.6182   92.2039   13.5699 C.ar    1  UNL1       -0.0045
     26 C          66.3435   93.4544   13.1697 C.ar    1  UNL1       -0.0003
     27 C          66.1986   93.9924   11.7771 C.ar    1  UNL1       -0.0003
     28 C          65.3284   93.2799   10.7845 C.ar    1  UNL1       -0.0032
     29 C          64.6031   92.0294   11.1847 C.ar    1  UNL1       -0.0103
     30 C          63.7329   91.3169   10.1922 C.3     1  UNL1        0.0953
     31 N          63.0076   90.0664   10.5924 N.3     1  UNL1       -0.2934
     32 H          63.3183   89.3302    9.9585 H       1  UNL1        0.1236
@<TRIPOS>BOND
     1    13    14    1
     2    14    12    1
     3    12     1    1
     4     1    21    1
     5    22    21    1
     6    22    23    1
     7    23    24    1
     8    24    25   ar
     9    25    26   ar
    10    26    27   ar
    11    27    28   ar
    12    28    29   ar
    13    29    30    1
    14    30    31    1
    15     2     1    1
    16     2     3    1
    17     3     4    1
    18     4     5    1
    19     5     6    1
    20     6     7   ar
    21     7     8   ar
    22     8     9   ar
    23     9    10   ar
    24    10    11   ar
    25    14    15    2
    26    15    16    1
    27    15    17    1
    28    17    18    1
    29    31    22    1
    30    11     2    1
    31    29    24   ar
    32    11     6   ar
    33    31    32    1
    34    18    19    1
    35    18    20    1
@<TRIPOS>MOLECULE
*****
 32 35 0 0 0
SMALL
GASTEIGER

@<TRIPOS>ATOM
      1 N          63.3531   83.7620   13.8112 N.3     1  UNL1       -0.2643
      2 C          63.4635   83.7980   12.3157 C.3     1  UNL1        0.0981
      3 C          64.3224   82.7961   11.6027 C.3     1  UNL1        0.0224
      4 C          64.4327   82.8321   10.1072 C.3     1  UNL1        0.0065
      5 C          63.6841   83.8700    9.3247 C.3     1  UNL1        0.0277
      6 C          62.8252   84.8719   10.0377 C.ar    1  UNL1       -0.0073
      7 C          62.0765   85.9098    9.2552 C.ar    1  UNL1       -0.0015
      8 C          61.2175   86.9117    9.9682 C.ar    1  UNL1        0.0203
      9 C          61.1072   86.8757   11.4637 C.ar    1  UNL1        0.0985
     10 N          61.8558   85.8378   12.2462 N.ar    1  UNL1       -0.2471
     11 C          62.7148   84.8359   11.5332 C.ar    1  UNL1        0.0695
     12 C          62.2271   83.0151   14.4624 C.3     1  UNL1        0.0971
     13 C          60.4765   81.1766   13.9099 C.3     1  UNL1        0.0298
     14 C          61.9059   81.6154   14.0293 C.2     1  UNL1       -0.0033
     15 C          63.0142   80.6545   13.7154 C.2     1  UNL1        0.1267
     16 F          64.4436   81.0933   13.8348 F       1  UNL1       -0.2080
     17 C          62.6930   79.2548   13.2823 C.3     1  UNL1        0.1220
     18 N          62.5962   78.9251   11.8222 N.3     1  UNL1       -0.3156
     19 H          61.8008   79.4166   11.4147 H       1  UNL1        0.1192
     20 H          62.4691   77.9195   11.7084 H       1  UNL1        0.1192
     21 C          64.3689   84.4729   14.6555 C.3     1  UNL1        0.0888
     22 C          64.0640   85.8332   15.2095 C.3     1  UNL1        0.0748
     23 C          64.5443   87.0599   14.4922 C.3     1  UNL1        0.0432
     24 C          64.2394   88.4202   15.0462 C.ar    1  UNL1       -0.0234
     25 C          64.7196   89.6469   14.3290 C.ar    1  UNL1       -0.0045
     26 C          64.4148   91.0071   14.8829 C.ar    1  UNL1       -0.0003
     27 C          63.6297   91.1406   16.1540 C.ar    1  UNL1       -0.0003
     28 C          63.1494   89.9139   16.8712 C.ar    1  UNL1       -0.0032
     29 C          63.4543   88.5537   16.3173 C.ar    1  UNL1       -0.0103
     30 C          62.9740   87.3268   17.0345 C.3     1  UNL1        0.0953
     31 N          63.2789   85.9666   16.4806 N.3     1  UNL1       -0.2934
     32 H          62.3830   85.5053   16.3231 H       1  UNL1        0.1236
@<TRIPOS>BOND
     1    13    14    1
     2    14    12    1
     3    12     1    1
     4     1    21    1
     5    22    21    1
     6    22    23    1
     7    23    24    1
     8    24    25   ar
     9    25    26   ar
    10    26    27   ar
    11    27    28   ar
    12    28    29   ar
    13    29    30    1
    14    30    31    1
    15     2     1    1
    16     2     3    1
    17     3     4    1
    18     4     5    1
    19     5     6    1
    20     6     7   ar
    21     7     8   ar
    22     8     9   ar
    23     9    10   ar
    24    10    11   ar
    25    14    15    2
    26    15    16    1
    27    15    17    1
    28    17    18    1
    29    31    22    1
    30    11     2    1
    31    29    24   ar
    32    11     6   ar
    33    31    32    1
    34    18    19    1
    35    18    20    1
@<TRIPOS>MOLECULE
*****
 32 35 0 0 0
SMALL
GASTEIGER

@<TRIPOS>ATOM
      1 N          62.3947   87.8198   11.8696 N.3     1  UNL1       -0.2643
      2 C          63.2670   88.7490   12.6606 C.3     1  UNL1        0.0981
      3 C          63.6987   88.3739   14.0473 C.3     1  UNL1        0.0224
      4 C          64.5710   89.3031   14.8383 C.3     1  UNL1        0.0065
      5 C          65.0117   90.6073   14.2427 C.3     1  UNL1        0.0277
      6 C          64.5800   90.9823   12.8560 C.ar    1  UNL1       -0.0073
      7 C          65.0206   92.2866   12.2602 C.ar    1  UNL1       -0.0015
      8 C          64.5889   92.6616   10.8736 C.ar    1  UNL1        0.0203
      9 C          63.7166   91.7324   10.0825 C.ar    1  UNL1        0.0985
     10 N          63.2760   90.4282   10.6782 N.ar    1  UNL1       -0.2471
     11 C          63.7077   90.0531   12.0650 C.ar    1  UNL1        0.0695
     12 C          60.9506   88.1568   11.6442 C.3     1  UNL1        0.0971
     13 C          60.1392   89.8118    9.8132 C.3     1  UNL1        0.0298
     14 C          60.4481   88.4118   10.2540 C.2     1  UNL1       -0.0033
     15 C          60.2545   87.2666    9.3047 C.2     1  UNL1        0.1267
     16 F          60.5634   85.8665    9.7455 F       1  UNL1       -0.2080
     17 C          59.7520   87.5216    7.9145 C.3     1  UNL1        0.1220
     18 N          58.3679   87.0929    7.5269 N.3     1  UNL1       -0.3156
     19 H          58.3096   86.0747    7.5454 H       1  UNL1        0.1192
     20 H          58.1588   87.4284    6.5866 H       1  UNL1        0.1192
     21 C          62.9665   86.5537   11.3041 C.3     1  UNL1        0.0888
     22 C          62.7930   85.2581   12.0400 C.3     1  UNL1        0.0748
     23 C          62.9316   83.9558   11.3087 C.3     1  UNL1        0.0432
     24 C          62.7581   82.6602   12.0445 C.ar    1  UNL1       -0.0234
     25 C          62.8967   81.3579   11.3133 C.ar    1  UNL1       -0.0045
     26 C          62.7232   80.0624   12.0491 C.ar    1  UNL1       -0.0003
     27 C          62.4112   80.0692   13.5163 C.ar    1  UNL1       -0.0003
     28 C          62.2726   81.3715   14.2476 C.ar    1  UNL1       -0.0032
     29 C          62.4461   82.6670   13.5117 C.ar    1  UNL1       -0.0103
     30 C          62.3075   83.9694   14.2430 C.3     1  UNL1        0.0953
     31 N          62.4810   85.2648   13.5071 N.3     1  UNL1       -0.2934
     32 H          63.2411   85.7655   13.9675 H       1  UNL1        0.1236
@<TRIPOS>BOND
     1    13    14    1
     2    14    12    1
     3    12     1    1
     4     1    21    1
     5    22    21    1
     6    22    23    1
     7    23    24    1
     8    24    25   ar
     9    25    26   ar
    10    26    27   ar
    11    27    28   ar
    12    28    29   ar
    13    29    30    1
    14    30    31    1
    15     2     1    1
    16     2     3    1
    17     3     4    1
    18     4     5    1
    19     5     6    1
    20     6     7   ar
    21     7     8   ar
    22     8     9   ar
    23     9    10   ar
    24    10    11   ar
    25    14    15    2
    26    15    16    1
    27    15    17    1
    28    17    18    1
    29    31    22    1
    30    11     2    1
    31    29    24   ar
    32    11     6   ar
    33    31    32    1
    34    18    19    1
    35    18    20    1
@<TRIPOS>MOLECULE
*****
 32 35 0 0 0
SMALL
GASTEIGER

@<TRIPOS>ATOM
      1 N          62.4704   86.1957   10.5967 N.3     1  UNL1       -0.2643
      2 C          62.9841   84.8204   10.9039 C.3     1  UNL1        0.0981
      3 C          63.5890   83.9850    9.8148 C.3     1  UNL1        0.0224
      4 C          64.1028   82.6096   10.1221 C.3     1  UNL1        0.0065
      5 C          64.0116   82.0696   11.5185 C.3     1  UNL1        0.0277
      6 C          63.4067   82.9049   12.6076 C.ar    1  UNL1       -0.0073
      7 C          63.3155   82.3649   14.0041 C.ar    1  UNL1       -0.0015
      8 C          62.7106   83.2002   15.0933 C.ar    1  UNL1        0.0203
      9 C          62.1969   84.5756   14.7860 C.ar    1  UNL1        0.0985
     10 N          62.2881   85.1157   13.3896 N.ar    1  UNL1       -0.2471
     11 C          62.8930   84.2803   12.3003 C.ar    1  UNL1        0.0695
     12 C          62.4287   86.6812    9.1781 C.3     1  UNL1        0.0971
     13 C          60.7059   85.5530    7.5940 C.3     1  UNL1        0.0298
     14 C          61.1252   86.7208    8.4369 C.2     1  UNL1       -0.0033
     15 C          60.2409   87.9282    8.5387 C.2     1  UNL1        0.1267
     16 F          60.6601   89.0959    9.3816 F       1  UNL1       -0.2080
     17 C          58.9374   87.9677    7.7976 C.3     1  UNL1        0.1220
     18 N          58.7493   88.9291    6.6617 N.3     1  UNL1       -0.3156
     19 H          58.7723   89.8847    7.0177 H       1  UNL1        0.1192
     20 H          57.8496   88.7547    6.2139 H       1  UNL1        0.1192
     21 C          61.9984   87.0857   11.7080 C.3     1  UNL1        0.0888
     22 C          62.8462   88.2388   12.1571 C.3     1  UNL1        0.0748
     23 C          63.0529   89.4156   11.2503 C.3     1  UNL1        0.0432
     24 C          63.9007   90.5687   11.6993 C.ar    1  UNL1       -0.0234
     25 C          64.1074   91.7455   10.7925 C.ar    1  UNL1       -0.0045
     26 C          64.9552   92.8986   11.2416 C.ar    1  UNL1       -0.0003
     27 C          65.5963   92.8748   12.5975 C.ar    1  UNL1       -0.0003
     28 C          65.3896   91.6979   13.5043 C.ar    1  UNL1       -0.0032
     29 C          64.5418   90.5449   13.0552 C.ar    1  UNL1       -0.0103
     30 C          64.3351   89.3680   13.9620 C.3     1  UNL1        0.0953
     31 N          63.4873   88.2150   13.5129 N.3     1  UNL1       -0.2934
     32 H          62.7334   88.1212   14.1936 H       1  UNL1        0.1236
@<TRIPOS>BOND
     1    13    14    1
     2    14    12    1
     3    12     1    1
     4     1    21    1
     5    22    21    1
     6    22    23    1
     7    23    24    1
     8    24    25   ar
     9    25    26   ar
    10    26    27   ar
    11    27    28   ar
    12    28    29   ar
    13    29    30    1
    14    30    31    1
    15     2     1    1
    16     2     3    1
    17     3     4    1
    18     4     5    1
    19     5     6    1
    20     6     7   ar
    21     7     8   ar
    22     8     9   ar
    23     9    10   ar
    24    10    11   ar
    25    14    15    2
    26    15    16    1
    27    15    17    1
    28    17    18    1
    29    31    22    1
    30    11     2    1
    31    29    24   ar
    32    11     6   ar
    33    31    32    1
    34    18    19    1
    35    18    20    1
@<TRIPOS>MOLECULE
*****
 32 35 0 0 0
SMALL
GASTEIGER

@<TRIPOS>ATOM
      1 N          62.4902   87.6568   11.4022 N.3     1  UNL1       -0.2643
      2 C          62.7517   86.2129   11.7135 C.3     1  UNL1        0.0981
      3 C          62.3800   85.1523   10.7202 C.3     1  UNL1        0.0224
      4 C          62.6414   83.7084   11.0315 C.3     1  UNL1        0.0065
      5 C          63.2745   83.3252   12.3362 C.3     1  UNL1        0.0277
      6 C          63.6462   84.3859   13.3295 C.ar    1  UNL1       -0.0073
      7 C          64.2794   84.0027   14.6343 C.ar    1  UNL1       -0.0015
      8 C          64.6511   85.0634   15.6277 C.ar    1  UNL1        0.0203
      9 C          64.3897   86.5072   15.3163 C.ar    1  UNL1        0.0985
     10 N          63.7566   86.8904   14.0117 N.ar    1  UNL1       -0.2471
     11 C          63.3848   85.8297   13.0182 C.ar    1  UNL1        0.0695
     12 C          62.3856   88.1095    9.9760 C.3     1  UNL1        0.0971
     13 C          60.2495   89.5662    9.7210 C.3     1  UNL1        0.0298
     14 C          61.0378   88.3422    9.3600 C.2     1  UNL1       -0.0033
     15 C          60.4785   87.3509    8.3830 C.2     1  UNL1        0.1267
     16 F          61.2668   86.1269    8.0220 F       1  UNL1       -0.2080
     17 C          59.1308   87.5836    7.7670 C.3     1  UNL1        0.1220
     18 N          58.1785   86.4381    7.5912 N.3     1  UNL1       -0.3156
     19 H          58.5628   85.7770    6.9162 H       1  UNL1        0.1192
     20 H          57.2832   86.7893    7.2513 H       1  UNL1        0.1192
     21 C          62.3335   88.6480   12.5171 C.3     1  UNL1        0.0888
     22 C          63.3165   89.7713   12.6657 C.3     1  UNL1        0.0748
     23 C          63.5531   90.7167   11.5255 C.3     1  UNL1        0.0432
     24 C          64.5361   91.8400   11.6742 C.ar    1  UNL1       -0.0234
     25 C          64.7727   92.7854   10.5339 C.ar    1  UNL1       -0.0045
     26 C          65.7556   93.9086   10.6826 C.ar    1  UNL1       -0.0003
     27 C          66.5019   94.0864   11.9716 C.ar    1  UNL1       -0.0003
     28 C          66.2653   93.1410   13.1118 C.ar    1  UNL1       -0.0032
     29 C          65.2824   92.0178   12.9631 C.ar    1  UNL1       -0.0103
     30 C          65.0458   91.0723   14.1034 C.3     1  UNL1        0.0953
     31 N          64.0628   89.9491   13.9547 N.3     1  UNL1       -0.2934
     32 H          63.3624   90.0720   14.6859 H       1  UNL1        0.1236
@<TRIPOS>BOND
     1    13    14    1
     2    14    12    1
     3    12     1    1
     4     1    21    1
     5    22    21    1
     6    22    23    1
     7    23    24    1
     8    24    25   ar
     9    25    26   ar
    10    26    27   ar
    11    27    28   ar
    12    28    29   ar
    13    29    30    1
    14    30    31    1
    15     2     1    1
    16     2     3    1
    17     3     4    1
    18     4     5    1
    19     5     6    1
    20     6     7   ar
    21     7     8   ar
    22     8     9   ar
    23     9    10   ar
    24    10    11   ar
    25    14    15    2
    26    15    16    1
    27    15    17    1
    28    17    18    1
    29    31    22    1
    30    11     2    1
    31    29    24   ar
    32    11     6   ar
    33    31    32    1
    34    18    19    1
    35    18    20    1
@<TRIPOS>MOLECULE
*****
 32 35 0 0 0
SMALL
GASTEIGER

@<TRIPOS>ATOM
      1 N          62.5284   87.6618   11.3912 N.3     1  UNL1       -0.2643
      2 C          62.7700   86.2138   11.6990 C.3     1  UNL1        0.0981
      3 C          62.4002   85.1619   10.6957 C.3     1  UNL1        0.0224
      4 C          62.6419   83.7138   11.0035 C.3     1  UNL1        0.0065
      5 C          63.2533   83.3176   12.3146 C.3     1  UNL1        0.0277
      6 C          63.6232   84.3695   13.3179 C.ar    1  UNL1       -0.0073
      7 C          64.2347   83.9734   14.6292 C.ar    1  UNL1       -0.0015
      8 C          64.6045   85.0252   15.6325 C.ar    1  UNL1        0.0203
      9 C          64.3628   86.4733   15.3247 C.ar    1  UNL1        0.0985
     10 N          63.7514   86.8695   14.0136 N.ar    1  UNL1       -0.2471
     11 C          63.3815   85.8176   13.0102 C.ar    1  UNL1        0.0695
     12 C          62.3976   88.1142    9.9671 C.3     1  UNL1        0.0971
     13 C          60.2428   89.5525    9.7733 C.3     1  UNL1        0.0298
     14 C          61.0388   88.3452    9.3753 C.2     1  UNL1       -0.0033
     15 C          60.4761   87.3687    8.3854 C.2     1  UNL1        0.1267
     16 F          61.2721   86.1613    7.9873 F       1  UNL1       -0.2080
     17 C          59.1173   87.5996    7.7935 C.3     1  UNL1        0.1220
     18 N          58.1826   86.4447    7.5879 N.3     1  UNL1       -0.3156
     19 H          58.5699   85.8147    6.8853 H       1  UNL1        0.1192
     20 H          57.2774   86.7920    7.2710 H       1  UNL1        0.1192
     21 C          62.4175   88.6575   12.5076 C.3     1  UNL1        0.0888
     22 C          63.3361   89.8426   12.5496 C.3     1  UNL1        0.0748
     23 C          64.0676   90.1800   13.8149 C.3     1  UNL1        0.0432
     24 C          64.9863   91.3652   13.8569 C.ar    1  UNL1       -0.0234
     25 C          65.7178   91.7026   15.1222 C.ar    1  UNL1       -0.0045
     26 C          66.6363   92.8876   15.1642 C.ar    1  UNL1       -0.0003
     27 C          66.8234   93.7353   13.9409 C.ar    1  UNL1       -0.0003
     28 C          66.0919   93.3978   12.6756 C.ar    1  UNL1       -0.0032
     29 C          65.1733   92.2128   12.6336 C.ar    1  UNL1       -0.0103
     30 C          64.4418   91.8753   11.3683 C.3     1  UNL1        0.0953
     31 N          63.5232   90.6902   11.3263 N.3     1  UNL1       -0.2934
     32 H          63.8709   90.0741   10.5915 H       1  UNL1        0.1236
@<TRIPOS>BOND
     1    13    14    1
     2    14    12    1
     3    12     1    1
     4     1    21    1
     5    22    21    1
     6    22    23    1
     7    23    24    1
     8    24    25   ar
     9    25    26   ar
    10    26    27   ar
    11    27    28   ar
    12    28    29   ar
    13    29    30    1
    14    30    31    1
    15     2     1    1
    16     2     3    1
    17     3     4    1
    18     4     5    1
    19     5     6    1
    20     6     7   ar
    21     7     8   ar
    22     8     9   ar
    23     9    10   ar
    24    10    11   ar
    25    14    15    2
    26    15    16    1
    27    15    17    1
    28    17    18    1
    29    31    22    1
    30    11     2    1
    31    29    24   ar
    32    11     6   ar
    33    31    32    1
    34    18    19    1
    35    18    20    1
