@<TRIPOS>MOLECULE
*****
 24 27 0 0 0
SMALL
GASTEIGER

@<TRIPOS>ATOM
      1 C          60.6331   87.2685   10.4545 C.3     1  UNL1        0.0342
      2 C          61.6286   86.1468   10.4304 C.2     1  UNL1        0.0113
      3 C          62.1071   85.5410   11.7165 C.2     1  UNL1       -0.0031
      4 C          63.1026   84.4193   11.6925 C.2     1  UNL1        0.0116
      5 C          63.7523   83.6301   12.7903 C.2     1  UNL1        0.0925
      6 C          64.6708   82.6264   12.1587 C.2     1  UNL1        0.1000
      7 N          64.5888   82.7953   10.6705 N.2     1  UNL1       -0.2616
      8 C          63.6197   83.9033   10.3823 C.3     1  UNL1        0.1507
      9 C          63.1412   84.5090    9.0963 C.2     1  UNL1        0.0384
     10 C          62.1456   85.6308    9.1203 C.2     1  UNL1        0.1276
     11 O          61.6671   86.2366    7.8342 O.2     1  UNL1       -0.5061
     12 H          61.9901   85.9143    7.0158 H       1  UNL1        0.2922
     13 C          63.5236   83.8127   14.2615 C.2     1  UNL1        0.3425
     14 O          63.6474   82.6417   15.1907 O.2     1  UNL1       -0.2448
     15 O          63.1709   85.1661   14.8034 O.3     1  UNL1       -0.4454
     16 C          64.2568   86.1136   15.2198 C.3     1  UNL1        0.2087
     17 C          63.9838   87.5873   15.2802 C.3     1  UNL1        0.0445
     18 C          63.3931   88.1905   16.5200 C.3     1  UNL1        0.0210
     19 C          63.1201   89.6642   16.5804 C.3     1  UNL1        0.0722
     20 N          63.4379   90.5347   15.4009 N.3     1  UNL1       -0.2727
     21 C          64.0287   89.9315   14.1611 C.3     1  UNL1        0.0722
     22 C          64.3016   88.4578   14.1007 C.3     1  UNL1        0.0210
     23 C          63.6051   89.7325   15.3209 C.3     1  UNL1        0.0722
     24 C          63.8519   88.4000   15.2662 C.3     1  UNL1        0.0210
@<TRIPOS>BOND
     1     1     2    1
     2     2     3    2
     3     3     4    1
     4     4     5    2
     5     5    13    1
     6    13    14    2
     7    13    15    1
     8    15    16    1
     9    16    17    1
    10    17    18    1
    11    18    19    1
    12    19    20    1
    13    20    21    1
    14    21    22    1
    15    20    23    1
    16    23    24    1
    17     5     6    1
    18     6     7    2
    19     7     8    1
    20     8     9    1
    21     9    10    2
    22    10    11    1
    23    10     2    1
    24     8     4    1
    25    22    17    1
    26    24    17    1
    27    11    12    1
@<TRIPOS>MOLECULE
*****
 24 27 0 0 0
SMALL
GASTEIGER

@<TRIPOS>ATOM
      1 C          60.5108   87.1808   10.1552 C.3     1  UNL1        0.0342
      2 C          61.5468   86.1055   10.2975 C.2     1  UNL1        0.0113
      3 C          61.9773   85.6546   11.6618 C.2     1  UNL1       -0.0031
      4 C          63.0133   84.5792   11.8041 C.2     1  UNL1        0.0116
      5 C          63.6315   83.9341   13.0090 C.2     1  UNL1        0.0925
      6 C          64.6190   82.9109   12.5317 C.2     1  UNL1        0.1000
      7 N          64.6112   82.9237   11.0318 N.2     1  UNL1       -0.2616
      8 C          63.6188   83.9547   10.5821 C.3     1  UNL1        0.1507
      9 C          63.1884   84.4056    9.2178 C.2     1  UNL1        0.0384
     10 C          62.1523   85.4810    9.0754 C.2     1  UNL1        0.1276
     11 O          61.7219   85.9318    7.7111 O.2     1  UNL1       -0.5061
     12 H          62.1001   85.5417    6.9478 H       1  UNL1        0.2922
     13 C          63.3172   84.2558   14.4400 C.2     1  UNL1        0.3425
     14 O          63.0517   83.1487   15.4167 O.2     1  UNL1       -0.2448
     15 O          63.2684   85.6845   14.8943 O.3     1  UNL1       -0.4454
     16 C          64.4055   86.6108   14.5797 C.3     1  UNL1        0.2087
     17 C          64.1277   88.0242   14.1613 C.3     1  UNL1        0.0445
     18 C          63.5502   88.3054   12.8058 C.3     1  UNL1        0.0210
     19 C          63.2724   89.7189   12.3875 C.3     1  UNL1        0.0722
     20 N          63.5720   90.8511   13.3247 N.3     1  UNL1       -0.2727
     21 C          64.1495   90.5699   14.6802 C.3     1  UNL1        0.0722
     22 C          64.4273   89.1564   15.0985 C.3     1  UNL1        0.0210
     23 C          63.7412   90.0932   13.5984 C.3     1  UNL1        0.0722
     24 C          63.9925   88.8152   13.9767 C.3     1  UNL1        0.0210
@<TRIPOS>BOND
     1     1     2    1
     2     2     3    2
     3     3     4    1
     4     4     5    2
     5     5    13    1
     6    13    14    2
     7    13    15    1
     8    15    16    1
     9    16    17    1
    10    17    18    1
    11    18    19    1
    12    19    20    1
    13    20    21    1
    14    21    22    1
    15    20    23    1
    16    23    24    1
    17     5     6    1
    18     6     7    2
    19     7     8    1
    20     8     9    1
    21     9    10    2
    22    10    11    1
    23    10     2    1
    24     8     4    1
    25    22    17    1
    26    24    17    1
    27    11    12    1
@<TRIPOS>MOLECULE
*****
 24 27 0 0 0
SMALL
GASTEIGER

@<TRIPOS>ATOM
      1 C          64.7273   90.6040   13.6769 C.3     1  UNL1        0.0342
      2 C          64.1948   89.6724   14.7250 C.2     1  UNL1        0.0113
      3 C          64.2340   88.1898   14.5005 C.2     1  UNL1       -0.0031
      4 C          63.7015   87.2582   15.5486 C.2     1  UNL1        0.0116
      5 C          63.6073   85.7624   15.6077 C.2     1  UNL1        0.0925
      6 C          62.9774   85.3888   16.9167 C.2     1  UNL1        0.1000
      7 N          62.6823   86.6539   17.6668 N.2     1  UNL1       -0.2616
      8 C          63.1298   87.8092   16.8213 C.3     1  UNL1        0.1507
      9 C          63.0906   89.2918   17.0458 C.2     1  UNL1        0.0384
     10 C          63.6231   90.2234   15.9976 C.2     1  UNL1        0.1276
     11 O          63.5839   91.7060   16.2221 O.2     1  UNL1       -0.5061
     12 H          63.2268   92.0502   17.0171 H       1  UNL1        0.2922
     13 C          64.0630   84.8076   14.5443 C.2     1  UNL1        0.3425
     14 O          65.5259   84.6562   14.2492 O.2     1  UNL1       -0.2448
     15 O          63.0559   84.0044   13.7759 O.3     1  UNL1       -0.4454
     16 C          63.3344   83.6141   12.3546 C.3     1  UNL1        0.2087
     17 C          62.9031   84.5110   11.2323 C.3     1  UNL1        0.0445
     18 C          61.9196   85.6140   11.4892 C.3     1  UNL1        0.0210
     19 C          61.4884   86.5108   10.3669 C.3     1  UNL1        0.0722
     20 N          62.0407   86.3046    8.9876 N.3     1  UNL1       -0.2727
     21 C          63.0242   85.2016    8.7306 C.3     1  UNL1        0.0722
     22 C          63.4554   84.3048    9.8530 C.3     1  UNL1        0.0210
     23 C          62.3067   85.7879    9.5707 C.3     1  UNL1        0.0722
     24 C          62.6967   84.9769   10.5855 C.3     1  UNL1        0.0210
@<TRIPOS>BOND
     1     1     2    1
     2     2     3    2
     3     3     4    1
     4     4     5    2
     5     5    13    1
     6    13    14    2
     7    13    15    1
     8    15    16    1
     9    16    17    1
    10    17    18    1
    11    18    19    1
    12    19    20    1
    13    20    21    1
    14    21    22    1
    15    20    23    1
    16    23    24    1
    17     5     6    1
    18     6     7    2
    19     7     8    1
    20     8     9    1
    21     9    10    2
    22    10    11    1
    23    10     2    1
    24     8     4    1
    25    22    17    1
    26    24    17    1
    27    11    12    1
@<TRIPOS>MOLECULE
*****
 24 27 0 0 0
SMALL
GASTEIGER

@<TRIPOS>ATOM
      1 C          63.0384   83.9924   14.1874 C.3     1  UNL1        0.0342
      2 C          63.1315   84.1183   12.6956 C.2     1  UNL1        0.0113
      3 C          62.3187   85.1551   11.9782 C.2     1  UNL1       -0.0031
      4 C          62.4118   85.2810   10.4865 C.2     1  UNL1        0.0116
      5 C          61.7367   86.2008    9.5127 C.2     1  UNL1        0.0925
      6 C          62.2253   85.8585    8.1365 C.2     1  UNL1        0.1000
      7 N          63.2023   84.7271    8.2596 N.2     1  UNL1       -0.2616
      8 C          63.3176   84.3701    9.7120 C.3     1  UNL1        0.1507
      9 C          64.1304   83.3334   10.4293 C.2     1  UNL1        0.0384
     10 C          64.0373   83.2075   11.9211 C.2     1  UNL1        0.1276
     11 O          64.8501   82.1707   12.6384 O.2     1  UNL1       -0.5061
     12 H          65.4159   81.6018   12.1546 H       1  UNL1        0.2922
     13 C          60.7468   87.2746    9.8552 C.2     1  UNL1        0.3425
     14 O          59.4222   87.3250    9.1533 O.2     1  UNL1       -0.2448
     15 O          61.0816   88.2978   10.8996 O.3     1  UNL1       -0.4454
     16 C          62.4017   89.0089   10.8571 C.3     1  UNL1        0.2087
     17 C          63.1415   89.2937   12.1304 C.3     1  UNL1        0.0445
     18 C          63.5583   88.1636   13.0245 C.3     1  UNL1        0.0210
     19 C          64.2981   88.4485   14.2979 C.3     1  UNL1        0.0722
     20 N          64.6213   89.8633   14.6771 N.3     1  UNL1       -0.2727
     21 C          64.2045   90.9933   13.7830 C.3     1  UNL1        0.0722
     22 C          63.4647   90.7085   12.5097 C.3     1  UNL1        0.0210
     23 C          64.2141   89.7566   13.9695 C.3     1  UNL1        0.0722
     24 C          63.5451   89.4992   12.8181 C.3     1  UNL1        0.0210
@<TRIPOS>BOND
     1     1     2    1
     2     2     3    2
     3     3     4    1
     4     4     5    2
     5     5    13    1
     6    13    14    2
     7    13    15    1
     8    15    16    1
     9    16    17    1
    10    17    18    1
    11    18    19    1
    12    19    20    1
    13    20    21    1
    14    21    22    1
    15    20    23    1
    16    23    24    1
    17     5     6    1
    18     6     7    2
    19     7     8    1
    20     8     9    1
    21     9    10    2
    22    10    11    1
    23    10     2    1
    24     8     4    1
    25    22    17    1
    26    24    17    1
    27    11    12    1
@<TRIPOS>MOLECULE
*****
 24 27 0 0 0
SMALL
GASTEIGER

@<TRIPOS>ATOM
      1 C          62.0196   88.6455    9.7981 C.3     1  UNL1        0.0342
      2 C          62.7381   89.4549   10.8366 C.2     1  UNL1        0.0113
      3 C          63.0458   88.8534   12.1759 C.2     1  UNL1       -0.0031
      4 C          63.7644   89.6628   13.2144 C.2     1  UNL1        0.0116
      5 C          64.2010   89.3410   14.6129 C.2     1  UNL1        0.0925
      6 C          64.8816   90.5530   15.1765 C.2     1  UNL1        0.1000
      7 N          64.8658   91.6239   14.1264 N.2     1  UNL1       -0.2616
      8 C          64.1753   91.0737   12.9137 C.3     1  UNL1        0.1507
      9 C          63.8676   91.6753   11.5745 C.2     1  UNL1        0.0384
     10 C          63.1490   90.8659   10.5359 C.2     1  UNL1        0.1276
     11 O          62.8413   91.4674    9.1967 O.2     1  UNL1       -0.5061
     12 H          63.0980   92.3488    9.0089 H       1  UNL1        0.2922
     13 C          63.9933   88.0362   15.3231 C.2     1  UNL1        0.3425
     14 O          63.1336   87.9791   16.5509 O.2     1  UNL1       -0.2448
     15 O          64.6453   86.7884   14.8054 O.3     1  UNL1       -0.4454
     16 C          63.8580   85.5152   14.7092 C.3     1  UNL1        0.2087
     17 C          63.7094   84.8234   13.3866 C.3     1  UNL1        0.0445
     18 C          62.7561   85.3620   12.3614 C.3     1  UNL1        0.0210
     19 C          62.6075   84.6702   11.0388 C.3     1  UNL1        0.0722
     20 N          63.4122   83.4397   10.7414 N.3     1  UNL1       -0.2727
     21 C          64.3655   82.9011   11.7666 C.3     1  UNL1        0.0722
     22 C          64.5141   83.5930   13.0892 C.3     1  UNL1        0.0210
     23 C          63.5277   83.7845   11.4801 C.3     1  UNL1        0.0722
     24 C          63.6621   84.4100   12.6761 C.3     1  UNL1        0.0210
@<TRIPOS>BOND
     1     1     2    1
     2     2     3    2
     3     3     4    1
     4     4     5    2
     5     5    13    1
     6    13    14    2
     7    13    15    1
     8    15    16    1
     9    16    17    1
    10    17    18    1
    11    18    19    1
    12    19    20    1
    13    20    21    1
    14    21    22    1
    15    20    23    1
    16    23    24    1
    17     5     6    1
    18     6     7    2
    19     7     8    1
    20     8     9    1
    21     9    10    2
    22    10    11    1
    23    10     2    1
    24     8     4    1
    25    22    17    1
    26    24    17    1
    27    11    12    1
@<TRIPOS>MOLECULE
*****
 24 27 0 0 0
SMALL
GASTEIGER

@<TRIPOS>ATOM
      1 C          64.4929   87.4750   14.9390 C.3     1  UNL1        0.0342
      2 C          63.8755   86.1154   14.7968 C.2     1  UNL1        0.0113
      3 C          63.8924   85.4191   13.4682 C.2     1  UNL1       -0.0031
      4 C          63.2750   84.0595   13.3260 C.2     1  UNL1        0.0116
      5 C          63.1413   83.1357   12.1519 C.2     1  UNL1        0.0925
      6 C          62.4244   81.9013   12.6125 C.2     1  UNL1        0.1000
      7 N          62.1149   82.0623   14.0714 N.2     1  UNL1       -0.2616
      8 C          62.6407   83.3961   14.5124 C.3     1  UNL1        0.1507
      9 C          62.6237   84.0923   15.8409 C.2     1  UNL1        0.0384
     10 C          63.2411   85.4520   15.9831 C.2     1  UNL1        0.1276
     11 O          63.2241   86.1481   17.3117 O.2     1  UNL1       -0.5061
     12 H          62.8279   85.7337   18.0527 H       1  UNL1        0.2922
     13 C          63.6376   83.3999   10.7612 C.2     1  UNL1        0.3425
     14 O          64.6330   82.4715   10.1310 O.2     1  UNL1       -0.2448
     15 O          63.1383   84.5925   10.0007 O.3     1  UNL1       -0.4454
     16 C          61.8349   85.2314   10.3788 C.3     1  UNL1        0.2087
     17 C          61.6388   86.7060   10.1864 C.3     1  UNL1        0.0445
     18 C          60.6983   87.2062    9.1304 C.3     1  UNL1        0.0210
     19 C          60.5023   88.6808    8.9381 C.3     1  UNL1        0.0722
     20 N          61.2467   89.6553    9.8019 N.3     1  UNL1       -0.2727
     21 C          62.1872   89.1552   10.8580 C.3     1  UNL1        0.0722
     22 C          62.3832   87.6805   11.0503 C.3     1  UNL1        0.0210
     23 C          61.3868   88.8566    9.9445 C.3     1  UNL1        0.0722
     24 C          61.5641   87.5232   10.1184 C.3     1  UNL1        0.0210
@<TRIPOS>BOND
     1     1     2    1
     2     2     3    2
     3     3     4    1
     4     4     5    2
     5     5    13    1
     6    13    14    2
     7    13    15    1
     8    15    16    1
     9    16    17    1
    10    17    18    1
    11    18    19    1
    12    19    20    1
    13    20    21    1
    14    21    22    1
    15    20    23    1
    16    23    24    1
    17     5     6    1
    18     6     7    2
    19     7     8    1
    20     8     9    1
    21     9    10    2
    22    10    11    1
    23    10     2    1
    24     8     4    1
    25    22    17    1
    26    24    17    1
    27    11    12    1
@<TRIPOS>MOLECULE
*****
 24 27 0 0 0
SMALL
GASTEIGER

@<TRIPOS>ATOM
      1 C          66.1281   94.1872   11.8321 C.3     1  UNL1        0.0342
      2 C          65.8141   92.9472   12.6155 C.2     1  UNL1        0.0113
      3 C          64.7530   92.0034   12.1324 C.2     1  UNL1       -0.0031
      4 C          64.4390   90.7634   12.9158 C.2     1  UNL1        0.0116
      5 C          63.4531   89.6558   12.6894 C.2     1  UNL1        0.0925
      6 C          63.5908   88.6750   13.8159 C.2     1  UNL1        0.1000
      7 N          64.6619   89.1764   14.7386 N.2     1  UNL1       -0.2616
      8 C          65.1861   90.4671   14.1824 C.3     1  UNL1        0.1507
      9 C          66.2472   91.4108   14.6655 C.2     1  UNL1        0.0384
     10 C          66.5612   92.6509   13.8821 C.2     1  UNL1        0.1276
     11 O          67.6223   93.5946   14.3652 O.2     1  UNL1       -0.5061
     12 H          68.0890   93.4095   15.1563 H       1  UNL1        0.2922
     13 C          62.4972   89.5480   11.5384 C.2     1  UNL1        0.3425
     14 O          62.8981   90.0458   10.1814 O.2     1  UNL1       -0.2448
     15 O          61.1405   88.9424   11.7444 O.3     1  UNL1       -0.4454
     16 C          60.6419   87.8827   10.8072 C.3     1  UNL1        0.2087
     17 C          61.5267   86.7280   10.4417 C.3     1  UNL1        0.0445
     18 C          61.9069   85.7159   11.4814 C.3     1  UNL1        0.0210
     19 C          62.7918   84.5612   11.1158 C.3     1  UNL1        0.0722
     20 N          63.2965   84.4187    9.7105 N.3     1  UNL1       -0.2727
     21 C          62.9164   85.4308    8.6708 C.3     1  UNL1        0.0722
     22 C          62.0315   86.5855    9.0364 C.3     1  UNL1        0.0210
     23 C          62.8142   85.0681    9.8634 C.3     1  UNL1        0.0722
     24 C          62.0140   86.1123   10.1938 C.3     1  UNL1        0.0210
@<TRIPOS>BOND
     1     1     2    1
     2     2     3    2
     3     3     4    1
     4     4     5    2
     5     5    13    1
     6    13    14    2
     7    13    15    1
     8    15    16    1
     9    16    17    1
    10    17    18    1
    11    18    19    1
    12    19    20    1
    13    20    21    1
    14    21    22    1
    15    20    23    1
    16    23    24    1
    17     5     6    1
    18     6     7    2
    19     7     8    1
    20     8     9    1
    21     9    10    2
    22    10    11    1
    23    10     2    1
    24     8     4    1
    25    22    17    1
    26    24    17    1
    27    11    12    1
@<TRIPOS>MOLECULE
*****
 24 27 0 0 0
SMALL
GASTEIGER

@<TRIPOS>ATOM
      1 C          63.1583   83.9268   12.6462 C.3     1  UNL1        0.0342
      2 C          63.5132   85.2807   13.1856 C.2     1  UNL1        0.0113
      3 C          63.0872   86.5165   12.4497 C.2     1  UNL1       -0.0031
      4 C          63.4421   87.8704   12.9892 C.2     1  UNL1        0.0116
      5 C          63.1619   89.2559   12.4872 C.2     1  UNL1        0.0925
      6 C          63.7695   90.2303   13.4522 C.2     1  UNL1        0.1000
      7 N          64.4253   89.4470   14.5506 N.2     1  UNL1       -0.2616
      8 C          64.2230   87.9886   14.2644 C.3     1  UNL1        0.1507
      9 C          64.6489   86.7528   15.0003 C.2     1  UNL1        0.0384
     10 C          64.2940   85.3989   14.4609 C.2     1  UNL1        0.1276
     11 O          64.7199   84.1632   15.1968 O.2     1  UNL1       -0.5061
     12 H          65.2077   84.2370   15.9934 H       1  UNL1        0.2922
     13 C          62.4066   89.6055   11.2393 C.2     1  UNL1        0.3425
     14 O          63.1372   90.1522   10.0488 O.2     1  UNL1       -0.2448
     15 O          60.9207   89.4084   11.1819 O.3     1  UNL1       -0.4454
     16 C          60.3512   88.0249   11.0728 C.3     1  UNL1        0.2087
     17 C          60.5443   87.2315    9.8146 C.3     1  UNL1        0.0445
     18 C          59.4414   87.1522    8.8011 C.3     1  UNL1        0.0210
     19 C          59.6346   86.3587    7.5429 C.3     1  UNL1        0.0722
     20 N          60.9307   85.6445    7.2983 N.3     1  UNL1       -0.2727
     21 C          62.0337   85.7237    8.3118 C.3     1  UNL1        0.0722
     22 C          61.8405   86.5172    9.5699 C.3     1  UNL1        0.0210
     23 C          60.8714   86.0669    8.0025 C.3     1  UNL1        0.0722
     24 C          60.6968   86.7844    9.1402 C.3     1  UNL1        0.0210
@<TRIPOS>BOND
     1     1     2    1
     2     2     3    2
     3     3     4    1
     4     4     5    2
     5     5    13    1
     6    13    14    2
     7    13    15    1
     8    15    16    1
     9    16    17    1
    10    17    18    1
    11    18    19    1
    12    19    20    1
    13    20    21    1
    14    21    22    1
    15    20    23    1
    16    23    24    1
    17     5     6    1
    18     6     7    2
    19     7     8    1
    20     8     9    1
    21     9    10    2
    22    10    11    1
    23    10     2    1
    24     8     4    1
    25    22    17    1
    26    24    17    1
    27    11    12    1
@<TRIPOS>MOLECULE
*****
 24 27 0 0 0
SMALL
GASTEIGER

@<TRIPOS>ATOM
      1 C          62.6135   83.6773   14.6051 C.3     1  UNL1        0.0342
      2 C          62.8600   83.7629   13.1280 C.2     1  UNL1        0.0113
      3 C          62.3988   84.9654   12.3590 C.2     1  UNL1       -0.0031
      4 C          62.6454   85.0510   10.8819 C.2     1  UNL1        0.0116
      5 C          62.3088   86.1034    9.8674 C.2     1  UNL1        0.0925
      6 C          62.8085   85.6369    8.5323 C.2     1  UNL1        0.1000
      7 N          63.4539   84.2962    8.7216 N.2     1  UNL1       -0.2616
      8 C          63.3531   83.9340   10.1737 C.3     1  UNL1        0.1507
      9 C          63.8143   82.7315   10.9426 C.2     1  UNL1        0.0384
     10 C          63.5678   82.6459   12.4198 C.2     1  UNL1        0.1276
     11 O          64.0290   81.4434   13.1887 O.2     1  UNL1       -0.5061
     12 H          64.4711   80.7457   12.7463 H       1  UNL1        0.2922
     13 C          61.5974   87.3955   10.1403 C.2     1  UNL1        0.3425
     14 O          60.0984   87.4457   10.1176 O.2     1  UNL1       -0.2448
     15 O          62.3850   88.6374   10.4359 O.3     1  UNL1       -0.4454
     16 C          62.1114   89.4192   11.6864 C.3     1  UNL1        0.2087
     17 C          63.2409   90.0783   12.4211 C.3     1  UNL1        0.0445
     18 C          63.8585   91.3326   11.8776 C.3     1  UNL1        0.0210
     19 C          64.9880   91.9917   12.6123 C.3     1  UNL1        0.0722
     20 N          65.5000   91.3965   13.8904 N.3     1  UNL1       -0.2727
     21 C          64.8824   90.1422   14.4339 C.3     1  UNL1        0.0722
     22 C          63.7528   89.4831   13.6992 C.3     1  UNL1        0.0210
     23 C          64.8791   90.9995   13.5232 C.3     1  UNL1        0.0722
     24 C          63.8577   90.4035   12.8590 C.3     1  UNL1        0.0210
@<TRIPOS>BOND
     1     1     2    1
     2     2     3    2
     3     3     4    1
     4     4     5    2
     5     5    13    1
     6    13    14    2
     7    13    15    1
     8    15    16    1
     9    16    17    1
    10    17    18    1
    11    18    19    1
    12    19    20    1
    13    20    21    1
    14    21    22    1
    15    20    23    1
    16    23    24    1
    17     5     6    1
    18     6     7    2
    19     7     8    1
    20     8     9    1
    21     9    10    2
    22    10    11    1
    23    10     2    1
    24     8     4    1
    25    22    17    1
    26    24    17    1
    27    11    12    1
