@<TRIPOS>MOLECULE
*****
 47 50 0 0 0
SMALL
GASTEIGER

@<TRIPOS>ATOM
      1 N          62.1240   88.0092   12.1014 N.3     1  UNL1       -0.2698
      2 C          61.9228   85.4566   11.6616 C.3     1  UNL1        0.0188
      3 C          61.2760   86.7862   11.9142 C.3     1  UNL1        0.0722
      4 C          61.5249   89.3723   11.9197 C.3     1  UNL1        0.0946
      5 C          61.4272   89.9718   10.5482 C.3     1  UNL1        0.1202
      6 N          62.6360   90.5933    9.9135 N.am    1  UNL1       -0.2684
      7 C          63.6069   91.3710   10.7516 C.2     1  UNL1        0.4020
      8 O          63.3690   91.5273   12.2244 O.2     1  UNL1       -0.2264
      9 H          62.7920   90.4907    8.9469 H       1  UNL1        0.1528
     10 O          64.8156   91.9924   10.1170 O.3     1  UNL1       -0.4291
     11 C          65.7502   92.8271   10.9416 C.3     1  UNL1        0.2447
     12 C          66.3321   94.0866   10.3715 C.ar    1  UNL1        0.0714
     13 C          67.3627   94.1685    9.2846 C.ar    1  UNL1        0.1053
     14 N          67.6532   95.6179    9.0295 N.ar    1  UNL1       -0.2350
     15 C          66.8021   96.4317    9.9588 C.ar    1  UNL1        0.1343
     16 S          65.9857   95.4854   10.7881 S.2     1  UNL1       -0.0652
     17 C          60.1209   89.9499    9.8114 C.3     1  UNL1        0.1635
     18 O          59.9432   89.0476    8.6264 O.3     1  UNL1       -0.3472
     19 C          59.7427   87.5749    8.8285 C.3     1  UNL1        0.1687
     20 C          60.7260   86.5984    8.2544 C.ar    1  UNL1        0.0073
     21 C          62.1432   86.5844    8.7459 C.ar    1  UNL1       -0.0019
     22 C          63.1265   85.6079    8.1718 C.ar    1  UNL1       -0.0002
     23 C          62.6926   84.6454    7.1063 C.ar    1  UNL1       -0.0000
     24 C          61.2755   84.6593    6.6149 C.ar    1  UNL1       -0.0002
     25 C          60.2922   85.6358    7.1889 C.ar    1  UNL1       -0.0019
     26 C          63.5712   87.8692   12.4704 C.3     1  UNL1        0.0946
     27 C          64.0287   88.2154   13.8563 C.3     1  UNL1        0.1202
     28 N          64.2446   89.6498   14.2383 N.am    1  UNL1       -0.2684
     29 C          63.4000   90.2763   15.3081 C.2     1  UNL1        0.4021
     30 O          62.3396   89.4685   15.9957 O.2     1  UNL1       -0.2264
     31 H          64.9406   90.1800   13.7870 H       1  UNL1        0.1528
     32 O          63.6159   91.7107   15.6901 O.3     1  UNL1       -0.4274
     33 C          64.8806   92.1195   16.3855 C.3     1  UNL1        0.2621
     34 C          66.1648   92.2087   15.6155 C.ar    1  UNL1        0.1323
     35 N          66.4306   91.5996   14.2707 N.ar    1  UNL1       -0.2374
     36 C          67.8387   91.9372   13.8791 C.ar    1  UNL1        0.1062
     37 C          68.4431   92.7550   14.9819 C.ar    1  UNL1        0.0573
     38 S          67.4085   92.9228   16.0550 S.2     1  UNL1       -0.0666
     39 C          64.2704   87.1274   14.8602 C.3     1  UNL1        0.1635
     40 O          63.5778   85.8049   14.7141 O.3     1  UNL1       -0.3472
     41 C          64.3621   84.5863   14.3270 C.3     1  UNL1        0.1687
     42 C          63.6469   83.3302   13.9259 C.ar    1  UNL1        0.0073
     43 C          64.1176   82.5462   12.7369 C.ar    1  UNL1       -0.0019
     44 C          63.4025   81.2902   12.3358 C.ar    1  UNL1       -0.0002
     45 C          62.2165   80.8181   13.1237 C.ar    1  UNL1       -0.0000
     46 C          61.7458   81.6021   14.3127 C.ar    1  UNL1       -0.0002
     47 C          62.4610   82.8582   14.7138 C.ar    1  UNL1       -0.0019
@<TRIPOS>BOND
     1     2     3    1
     2     3     1    1
     3     1     4    1
     4     4     5    1
     5     5    17    1
     6    17    18    1
     7    18    19    1
     8    19    20    1
     9    20    21   ar
    10    21    22   ar
    11    22    23   ar
    12    23    24   ar
    13    24    25   ar
    14     5     6    1
    15     6     7   am
    16     7     8    2
    17     7    10    1
    18    10    11    1
    19    11    12    1
    20    12    13   ar
    21    13    14   ar
    22    14    15   ar
    23    15    16   ar
    24     1    26    1
    25    26    27    1
    26    27    39    1
    27    39    40    1
    28    40    41    1
    29    41    42    1
    30    42    43   ar
    31    43    44   ar
    32    44    45   ar
    33    45    46   ar
    34    46    47   ar
    35    27    28    1
    36    28    29   am
    37    29    30    2
    38    29    32    1
    39    32    33    1
    40    33    34    1
    41    34    35   ar
    42    35    36   ar
    43    36    37   ar
    44    37    38   ar
    45    25    20   ar
    46    16    12   ar
    47    47    42   ar
    48    38    34   ar
    49     6     9    1
    50    28    31    1
@<TRIPOS>MOLECULE
*****
 47 50 0 0 0
SMALL
GASTEIGER

@<TRIPOS>ATOM
      1 N          62.1260   88.1127   12.0166 N.3     1  UNL1       -0.2698
      2 C          61.7085   85.6654   11.2511 C.3     1  UNL1        0.0188
      3 C          61.1793   87.0212   11.6138 C.3     1  UNL1        0.0722
      4 C          61.6668   89.5407   12.0190 C.3     1  UNL1        0.0946
      5 C          61.7323   90.3517   10.7587 C.3     1  UNL1        0.1202
      6 N          60.5523   90.3967    9.8337 N.am    1  UNL1       -0.2684
      7 C          60.3107   89.2721    8.8710 C.2     1  UNL1        0.4020
      8 O          61.2491   88.1025    8.8332 O.2     1  UNL1       -0.2264
      9 H          59.9365   91.1644    9.8585 H       1  UNL1        0.1528
     10 O          59.1308   89.3172    7.9459 O.3     1  UNL1       -0.4291
     11 C          59.3367   89.2283    6.4628 C.3     1  UNL1        0.2447
     12 C          59.1187   90.4370    5.6016 C.ar    1  UNL1        0.0714
     13 C          57.7973   91.0827    5.3065 C.ar    1  UNL1        0.1053
     14 N          58.0459   92.2570    4.4068 N.ar    1  UNL1       -0.2350
     15 C          59.5209   92.3370    4.1459 C.ar    1  UNL1        0.1343
     16 S          60.1839   91.2123    4.8844 S.2     1  UNL1       -0.0652
     17 C          62.9777   91.1175   10.4236 C.3     1  UNL1        0.1635
     18 O          64.1408   91.1095   11.3707 O.3     1  UNL1       -0.3472
     19 C          64.7697   92.4029   11.7971 C.3     1  UNL1        0.1687
     20 C          65.8044   93.0558   10.9293 C.ar    1  UNL1        0.0073
     21 C          66.9785   92.2630   10.4364 C.ar    1  UNL1       -0.0019
     22 C          68.0132   92.9159    9.5686 C.ar    1  UNL1       -0.0002
     23 C          67.8737   94.3616    9.1936 C.ar    1  UNL1       -0.0000
     24 C          66.6996   95.1543    9.6865 C.ar    1  UNL1       -0.0002
     25 C          65.6649   94.5014   10.5543 C.ar    1  UNL1       -0.0019
     26 C          63.5318   87.7762   12.4170 C.3     1  UNL1        0.0946
     27 C          64.0328   88.1490   13.7809 C.3     1  UNL1        0.1202
     28 N          64.2841   89.5883   14.1200 N.am    1  UNL1       -0.2684
     29 C          63.4728   90.2599   15.1881 C.2     1  UNL1        0.4021
     30 O          62.4102   89.4921   15.9171 O.2     1  UNL1       -0.2264
     31 H          64.9815   90.0923   13.6416 H       1  UNL1        0.1528
     32 O          63.7241   91.6993   15.5272 O.3     1  UNL1       -0.4274
     33 C          64.9518   92.0849   16.2980 C.3     1  UNL1        0.2621
     34 C          66.2742   92.1911   15.5982 C.ar    1  UNL1        0.1323
     35 N          66.6784   91.4480   14.3594 N.ar    1  UNL1       -0.2374
     36 C          68.0786   91.8566   14.0098 C.ar    1  UNL1        0.1062
     37 C          68.5399   92.8524   15.0325 C.ar    1  UNL1        0.0573
     38 S          67.4247   93.0591   16.0141 S.2     1  UNL1       -0.0666
     39 C          64.2824   87.0824   14.8056 C.3     1  UNL1        0.1635
     40 O          63.3708   85.8941   14.8886 O.3     1  UNL1       -0.3472
     41 C          63.9444   84.5081   14.9000 C.3     1  UNL1        0.1687
     42 C          63.6492   83.5650   13.7714 C.ar    1  UNL1        0.0073
     43 C          64.4468   83.6401   12.5033 C.ar    1  UNL1       -0.0019
     44 C          64.1517   82.6971   11.3747 C.ar    1  UNL1       -0.0002
     45 C          63.0590   81.6789   11.5143 C.ar    1  UNL1       -0.0000
     46 C          62.2614   81.6039   12.7825 C.ar    1  UNL1       -0.0002
     47 C          62.5565   82.5470   13.9110 C.ar    1  UNL1       -0.0019
@<TRIPOS>BOND
     1     2     3    1
     2     3     1    1
     3     1     4    1
     4     4     5    1
     5     5    17    1
     6    17    18    1
     7    18    19    1
     8    19    20    1
     9    20    21   ar
    10    21    22   ar
    11    22    23   ar
    12    23    24   ar
    13    24    25   ar
    14     5     6    1
    15     6     7   am
    16     7     8    2
    17     7    10    1
    18    10    11    1
    19    11    12    1
    20    12    13   ar
    21    13    14   ar
    22    14    15   ar
    23    15    16   ar
    24     1    26    1
    25    26    27    1
    26    27    39    1
    27    39    40    1
    28    40    41    1
    29    41    42    1
    30    42    43   ar
    31    43    44   ar
    32    44    45   ar
    33    45    46   ar
    34    46    47   ar
    35    27    28    1
    36    28    29   am
    37    29    30    2
    38    29    32    1
    39    32    33    1
    40    33    34    1
    41    34    35   ar
    42    35    36   ar
    43    36    37   ar
    44    37    38   ar
    45    25    20   ar
    46    16    12   ar
    47    47    42   ar
    48    38    34   ar
    49     6     9    1
    50    28    31    1
@<TRIPOS>MOLECULE
*****
 47 50 0 0 0
SMALL
GASTEIGER

@<TRIPOS>ATOM
      1 N          62.7839   88.5539   12.2427 N.3     1  UNL1       -0.2698
      2 C          61.5644   86.3623   11.5650 C.3     1  UNL1        0.0188
      3 C          62.8362   87.1276   11.7815 C.3     1  UNL1        0.0722
      4 C          61.6700   89.4492   11.7868 C.3     1  UNL1        0.0946
      5 C          61.7669   90.1540   10.4663 C.3     1  UNL1        0.1202
      6 N          60.5785   90.2007    9.5521 N.am    1  UNL1       -0.2684
      7 C          60.2170   88.9993    8.7299 C.2     1  UNL1        0.4020
      8 O          61.0440   87.7512    8.8218 O.2     1  UNL1       -0.2264
      9 H          60.0358   91.0199    9.4918 H       1  UNL1        0.1528
     10 O          59.0287   89.0461    7.8158 O.3     1  UNL1       -0.4291
     11 C          59.2267   89.0729    6.3291 C.3     1  UNL1        0.2447
     12 C          59.0487   90.3555    5.5719 C.ar    1  UNL1        0.0714
     13 C          57.7502   91.0696    5.3400 C.ar    1  UNL1        0.1053
     14 N          58.0370   92.3046    4.5383 N.ar    1  UNL1       -0.2350
     15 C          59.5130   92.3537    4.2748 C.ar    1  UNL1        0.1343
     16 S          60.1382   91.1491    4.9136 S.2     1  UNL1       -0.0652
     17 C          63.0521   90.8119   10.0598 C.3     1  UNL1        0.1635
     18 O          63.5360   92.0286   10.7916 O.3     1  UNL1       -0.3472
     19 C          64.9516   92.0945   11.2833 C.3     1  UNL1        0.1687
     20 C          65.9436   92.9852   10.5959 C.ar    1  UNL1        0.0073
     21 C          65.6926   94.4617   10.5102 C.ar    1  UNL1       -0.0019
     22 C          66.6846   95.3524    9.8228 C.ar    1  UNL1       -0.0002
     23 C          67.9276   94.7666    9.2211 C.ar    1  UNL1       -0.0000
     24 C          68.1785   93.2903    9.3068 C.ar    1  UNL1       -0.0002
     25 C          67.1865   92.3996    9.9942 C.ar    1  UNL1       -0.0019
     26 C          63.8454   89.0851   13.1598 C.3     1  UNL1        0.0946
     27 C          63.8754   88.6601   14.5980 C.3     1  UNL1        0.1202
     28 N          64.1646   87.2316   14.9520 N.am    1  UNL1       -0.2684
     29 C          63.4052   86.5651   16.0608 C.2     1  UNL1        0.4021
     30 O          62.3566   87.3273   16.8154 O.2     1  UNL1       -0.2264
     31 H          64.8529   86.7313   14.4567 H       1  UNL1        0.1528
     32 O          63.6944   85.1365   16.4148 O.3     1  UNL1       -0.4274
     33 C          62.9096   84.0310   15.7729 C.3     1  UNL1        0.2621
     34 C          63.2580   83.5696   14.3888 C.ar    1  UNL1        0.1323
     35 N          64.1829   84.2650   13.4343 N.ar    1  UNL1       -0.2374
     36 C          64.2393   83.4570   12.1718 C.ar    1  UNL1        0.1062
     37 C          63.3493   82.2622   12.3461 C.ar    1  UNL1        0.0573
     38 S          62.7429   82.3318   13.7163 S.2     1  UNL1       -0.0666
     39 C          63.6161   89.6638   15.6821 C.3     1  UNL1        0.1635
     40 O          63.6655   91.1309   15.3735 O.3     1  UNL1       -0.3472
     41 C          64.6453   92.0148   16.0868 C.3     1  UNL1        0.1687
     42 C          66.0440   92.1589   15.5643 C.ar    1  UNL1        0.0073
     43 C          66.4018   91.6060   14.2166 C.ar    1  UNL1       -0.0019
     44 C          67.8004   91.7501   13.6941 C.ar    1  UNL1       -0.0002
     45 C          68.8413   92.4471   14.5193 C.ar    1  UNL1       -0.0000
     46 C          68.4834   93.0000   15.8670 C.ar    1  UNL1       -0.0002
     47 C          67.0847   92.8559   16.3895 C.ar    1  UNL1       -0.0019
@<TRIPOS>BOND
     1     2     3    1
     2     3     1    1
     3     1     4    1
     4     4     5    1
     5     5    17    1
     6    17    18    1
     7    18    19    1
     8    19    20    1
     9    20    21   ar
    10    21    22   ar
    11    22    23   ar
    12    23    24   ar
    13    24    25   ar
    14     5     6    1
    15     6     7   am
    16     7     8    2
    17     7    10    1
    18    10    11    1
    19    11    12    1
    20    12    13   ar
    21    13    14   ar
    22    14    15   ar
    23    15    16   ar
    24     1    26    1
    25    26    27    1
    26    27    39    1
    27    39    40    1
    28    40    41    1
    29    41    42    1
    30    42    43   ar
    31    43    44   ar
    32    44    45   ar
    33    45    46   ar
    34    46    47   ar
    35    27    28    1
    36    28    29   am
    37    29    30    2
    38    29    32    1
    39    32    33    1
    40    33    34    1
    41    34    35   ar
    42    35    36   ar
    43    36    37   ar
    44    37    38   ar
    45    25    20   ar
    46    16    12   ar
    47    47    42   ar
    48    38    34   ar
    49     6     9    1
    50    28    31    1
@<TRIPOS>MOLECULE
*****
 47 50 0 0 0
SMALL
GASTEIGER

@<TRIPOS>ATOM
      1 N          62.1113   89.0488   11.5704 N.3     1  UNL1       -0.2698
      2 C          59.9585   90.4805   11.3148 C.3     1  UNL1        0.0188
      3 C          60.8116   89.5509   12.1259 C.3     1  UNL1        0.0722
      4 C          62.2671   88.8469   10.0922 C.3     1  UNL1        0.0946
      5 C          61.7000   87.6216    9.4387 C.3     1  UNL1        0.1202
      6 N          62.4972   86.3513    9.4070 N.am    1  UNL1       -0.2684
      7 C          62.4637   85.4154   10.5787 C.2     1  UNL1        0.4020
      8 O          61.6330   85.7497   11.7822 O.2     1  UNL1       -0.2264
      9 H          63.0425   86.1319    8.6172 H       1  UNL1        0.1528
     10 O          63.2609   84.1452   10.5471 O.3     1  UNL1       -0.4291
     11 C          63.8291   83.5844   11.8171 C.3     1  UNL1        0.2447
     12 C          63.4124   82.2226   12.2880 C.ar    1  UNL1        0.0714
     13 C          62.8503   81.1272   11.4312 C.ar    1  UNL1        0.1053
     14 N          62.5751   79.9446   12.3121 N.ar    1  UNL1       -0.2350
     15 C          62.9672   80.3092   13.7134 C.ar    1  UNL1        0.1343
     16 S          63.4846   81.7171   13.6984 S.2     1  UNL1       -0.0652
     17 C          60.3356   87.6664    8.8170 C.3     1  UNL1        0.1635
     18 O          59.8372   88.9361    8.1929 O.3     1  UNL1       -0.3472
     19 C          59.0532   88.8863    6.9151 C.3     1  UNL1        0.1687
     20 C          59.0885   90.0487    5.9677 C.ar    1  UNL1        0.0073
     21 C          60.3978   90.5206    5.4079 C.ar    1  UNL1       -0.0019
     22 C          60.4331   91.6830    4.4605 C.ar    1  UNL1       -0.0002
     23 C          59.1591   92.3735    4.0729 C.ar    1  UNL1       -0.0000
     24 C          57.8499   91.9016    4.6326 C.ar    1  UNL1       -0.0002
     25 C          57.8146   90.7392    5.5800 C.ar    1  UNL1       -0.0019
     26 C          63.2553   88.7486   12.4930 C.3     1  UNL1        0.0946
     27 C          63.7740   89.8118   13.4151 C.3     1  UNL1        0.1202
     28 N          64.1152   89.4714   14.8356 N.am    1  UNL1       -0.2684
     29 C          63.0262   89.3495   15.8600 C.2     1  UNL1        0.4021
     30 O          61.5961   89.5681   15.4639 O.2     1  UNL1       -0.2264
     31 H          65.0539   89.3279   15.0955 H       1  UNL1        0.1528
     32 O          63.3674   89.0091   17.2804 O.3     1  UNL1       -0.4274
     33 C          62.9820   87.6739   17.8450 C.3     1  UNL1        0.2621
     34 C          62.8890   86.4775   16.9450 C.ar    1  UNL1        0.1323
     35 N          61.6737   85.6235   16.7364 N.ar    1  UNL1       -0.2374
     36 C          62.0286   84.5433   15.7580 C.ar    1  UNL1        0.1062
     37 C          63.4633   84.7298   15.3619 C.ar    1  UNL1        0.0573
     38 S          63.9951   85.9252   16.0956 S.2     1  UNL1       -0.0666
     39 C          63.9515   91.2154   12.9169 C.3     1  UNL1        0.1635
     40 O          64.8722   92.1559   13.6365 O.3     1  UNL1       -0.3472
     41 C          66.3023   92.2841   13.2027 C.3     1  UNL1        0.1687
     42 C          66.6398   93.0181   11.9388 C.ar    1  UNL1        0.0073
     43 C          67.3620   92.3106   10.8306 C.ar    1  UNL1       -0.0019
     44 C          67.6995   93.0445    9.5668 C.ar    1  UNL1       -0.0002
     45 C          67.3148   94.4860    9.4110 C.ar    1  UNL1       -0.0000
     46 C          66.5926   95.1935   10.5191 C.ar    1  UNL1       -0.0002
     47 C          66.2551   94.4595   11.7830 C.ar    1  UNL1       -0.0019
@<TRIPOS>BOND
     1     2     3    1
     2     3     1    1
     3     1     4    1
     4     4     5    1
     5     5    17    1
     6    17    18    1
     7    18    19    1
     8    19    20    1
     9    20    21   ar
    10    21    22   ar
    11    22    23   ar
    12    23    24   ar
    13    24    25   ar
    14     5     6    1
    15     6     7   am
    16     7     8    2
    17     7    10    1
    18    10    11    1
    19    11    12    1
    20    12    13   ar
    21    13    14   ar
    22    14    15   ar
    23    15    16   ar
    24     1    26    1
    25    26    27    1
    26    27    39    1
    27    39    40    1
    28    40    41    1
    29    41    42    1
    30    42    43   ar
    31    43    44   ar
    32    44    45   ar
    33    45    46   ar
    34    46    47   ar
    35    27    28    1
    36    28    29   am
    37    29    30    2
    38    29    32    1
    39    32    33    1
    40    33    34    1
    41    34    35   ar
    42    35    36   ar
    43    36    37   ar
    44    37    38   ar
    45    25    20   ar
    46    16    12   ar
    47    47    42   ar
    48    38    34   ar
    49     6     9    1
    50    28    31    1
@<TRIPOS>MOLECULE
*****
 47 50 0 0 0
SMALL
GASTEIGER

@<TRIPOS>ATOM
      1 N          63.4437   88.3656   16.1183 N.3     1  UNL1       -0.2698
      2 C          62.8712   86.6352   17.9696 C.3     1  UNL1        0.0188
      3 C          62.4295   87.5583   16.8730 C.3     1  UNL1        0.0722
      4 C          64.4693   87.6760   15.2681 C.3     1  UNL1        0.0946
      5 C          64.0423   86.6436   14.2672 C.3     1  UNL1        0.1202
      6 N          64.3590   85.1961   14.5012 N.am    1  UNL1       -0.2684
      7 C          63.2782   84.2536   14.9412 C.2     1  UNL1        0.4020
      8 O          61.8808   84.7586   15.1472 O.2     1  UNL1       -0.2264
      9 H          65.2761   84.8647   14.3660 H       1  UNL1        0.1528
     10 O          63.5947   82.8062   15.1752 O.3     1  UNL1       -0.4291
     11 C          63.1315   81.7692   14.1954 C.3     1  UNL1        0.2447
     12 C          63.5174   81.8777   12.7500 C.ar    1  UNL1        0.0714
     13 C          64.6541   82.6867   12.1992 C.ar    1  UNL1        0.1053
     14 N          64.6736   82.5052   10.7103 N.ar    1  UNL1       -0.2350
     15 C          63.5489   81.5839   10.3409 C.ar    1  UNL1        0.1343
     16 S          62.8343   81.1961   11.6015 S.2     1  UNL1       -0.0652
     17 C          63.2988   87.0586   13.0324 C.3     1  UNL1        0.1635
     18 O          62.7354   86.0177   12.1108 O.3     1  UNL1       -0.3472
     19 C          61.6084   86.3670   11.1846 C.3     1  UNL1        0.1687
     20 C          61.6552   85.9332    9.7495 C.ar    1  UNL1        0.0073
     21 C          62.9066   85.3234    9.1907 C.ar    1  UNL1       -0.0019
     22 C          62.9534   84.8896    7.7556 C.ar    1  UNL1       -0.0002
     23 C          61.7488   85.0656    6.8792 C.ar    1  UNL1       -0.0000
     24 C          60.4974   85.6753    7.4380 C.ar    1  UNL1       -0.0002
     25 C          60.4506   86.1091    8.8731 C.ar    1  UNL1       -0.0019
     26 C          63.4323   89.8626   16.2136 C.3     1  UNL1        0.0946
     27 C          64.0918   90.6870   15.1481 C.3     1  UNL1        0.1202
     28 N          65.4331   91.3081   15.4031 N.am    1  UNL1       -0.2684
     29 C          65.5696   92.4109   16.4107 C.2     1  UNL1        0.4021
     30 O          64.3648   92.8926   17.1633 O.2     1  UNL1       -0.2264
     31 H          66.2238   90.9919   14.9091 H       1  UNL1        0.1528
     32 O          66.9109   93.0320   16.6657 O.3     1  UNL1       -0.4274
     33 C          67.7729   93.4550   15.5132 C.3     1  UNL1        0.2621
     34 C          67.3163   93.2100   14.1056 C.ar    1  UNL1        0.1323
     35 N          67.6928   92.0386   13.2477 N.ar    1  UNL1       -0.2374
     36 C          67.0122   92.1980   11.9206 C.ar    1  UNL1        0.1062
     37 C          66.2149   93.4681   11.9583 C.ar    1  UNL1        0.0573
     38 S          66.4028   94.0935   13.3086 S.2     1  UNL1       -0.0666
     39 C          63.4099   90.8903   13.8276 C.3     1  UNL1        0.1635
     40 O          64.1090   90.5100   12.5561 O.3     1  UNL1       -0.3472
     41 C          63.4917   90.8470   11.2312 C.3     1  UNL1        0.1687
     42 C          62.1501   90.2851   10.8642 C.ar    1  UNL1        0.0073
     43 C          61.8495   89.9323    9.4377 C.ar    1  UNL1       -0.0019
     44 C          60.5080   89.3705    9.0707 C.ar    1  UNL1       -0.0002
     45 C          59.4670   89.1614   10.1303 C.ar    1  UNL1       -0.0000
     46 C          59.7677   89.5143   11.5569 C.ar    1  UNL1       -0.0002
     47 C          61.1092   90.0761   11.9239 C.ar    1  UNL1       -0.0019
@<TRIPOS>BOND
     1     2     3    1
     2     3     1    1
     3     1     4    1
     4     4     5    1
     5     5    17    1
     6    17    18    1
     7    18    19    1
     8    19    20    1
     9    20    21   ar
    10    21    22   ar
    11    22    23   ar
    12    23    24   ar
    13    24    25   ar
    14     5     6    1
    15     6     7   am
    16     7     8    2
    17     7    10    1
    18    10    11    1
    19    11    12    1
    20    12    13   ar
    21    13    14   ar
    22    14    15   ar
    23    15    16   ar
    24     1    26    1
    25    26    27    1
    26    27    39    1
    27    39    40    1
    28    40    41    1
    29    41    42    1
    30    42    43   ar
    31    43    44   ar
    32    44    45   ar
    33    45    46   ar
    34    46    47   ar
    35    27    28    1
    36    28    29   am
    37    29    30    2
    38    29    32    1
    39    32    33    1
    40    33    34    1
    41    34    35   ar
    42    35    36   ar
    43    36    37   ar
    44    37    38   ar
    45    25    20   ar
    46    16    12   ar
    47    47    42   ar
    48    38    34   ar
    49     6     9    1
    50    28    31    1
@<TRIPOS>MOLECULE
*****
 47 50 0 0 0
SMALL
GASTEIGER

@<TRIPOS>ATOM
      1 N          61.1089   88.7353   11.4775 N.3     1  UNL1       -0.2698
      2 C          59.4393   90.7125   11.2480 C.3     1  UNL1        0.0188
      3 C          59.9781   89.5514   12.0299 C.3     1  UNL1        0.0722
      4 C          60.8556   87.3437   10.9781 C.3     1  UNL1        0.0946
      5 C          61.3805   86.9206    9.6381 C.3     1  UNL1        0.1202
      6 N          61.0185   87.7021    8.4100 N.am    1  UNL1       -0.2684
      7 C          59.6483   87.5705    7.8141 C.2     1  UNL1        0.4020
      8 O          58.6400   86.6573    8.4464 O.2     1  UNL1       -0.2264
      9 H          61.6803   88.3014    7.9951 H       1  UNL1        0.1528
     10 O          59.2862   88.3519    6.5860 O.3     1  UNL1       -0.4291
     11 C          58.8794   89.7908    6.7054 C.3     1  UNL1        0.2447
     12 C          59.2052   90.7561    5.6046 C.ar    1  UNL1        0.0714
     13 C          60.5702   91.0272    5.0448 C.ar    1  UNL1        0.1053
     14 N          60.4317   92.0585    3.9644 N.ar    1  UNL1       -0.2350
     15 C          58.9811   92.4249    3.8565 C.ar    1  UNL1        0.1343
     16 S          58.2231   91.6200    4.8701 S.2     1  UNL1       -0.0652
     17 C          62.2674   85.7161    9.5263 C.3     1  UNL1        0.1635
     18 O          62.6318   84.9364   10.7548 O.3     1  UNL1       -0.3472
     19 C          63.2891   83.5945   10.6239 C.3     1  UNL1        0.1687
     20 C          62.9597   82.5000   11.5952 C.ar    1  UNL1        0.0073
     21 C          63.0185   81.0663   11.1579 C.ar    1  UNL1       -0.0019
     22 C          62.6890   79.9718   12.1293 C.ar    1  UNL1       -0.0002
     23 C          62.3009   80.3110   13.5380 C.ar    1  UNL1       -0.0000
     24 C          62.2422   81.7446   13.9752 C.ar    1  UNL1       -0.0002
     25 C          62.5716   82.8391   13.0039 C.ar    1  UNL1       -0.0019
     26 C          62.4931   89.3108   11.4244 C.3     1  UNL1        0.0946
     27 C          62.9355   90.2975   12.4641 C.3     1  UNL1        0.1202
     28 N          62.4103   90.1964   13.8654 N.am    1  UNL1       -0.2684
     29 C          63.2678   89.6093   14.9472 C.2     1  UNL1        0.4021
     30 O          64.6504   89.1232   14.6275 O.2     1  UNL1       -0.2264
     31 H          61.5029   90.5154   14.0753 H       1  UNL1        0.1528
     32 O          62.7426   89.5082   16.3486 O.3     1  UNL1       -0.4274
     33 C          63.1516   88.3591   17.2218 C.3     1  UNL1        0.2621
     34 C          63.0180   86.9517   16.7206 C.ar    1  UNL1        0.1323
     35 N          61.8144   86.0704   16.8774 N.ar    1  UNL1       -0.2374
     36 C          62.1171   84.7524   16.2283 C.ar    1  UNL1        0.1062
     37 C          63.5079   84.8192   15.6703 C.ar    1  UNL1        0.0573
     38 S          64.0647   86.1784   15.9746 S.2     1  UNL1       -0.0666
     39 C          63.9030   91.3851   12.1023 C.3     1  UNL1        0.1635
     40 O          64.6413   92.1214   13.1806 O.3     1  UNL1       -0.3472
     41 C          66.1047   92.4114   13.0239 C.3     1  UNL1        0.1687
     42 C          66.6252   92.9657   11.7309 C.ar    1  UNL1        0.0073
     43 C          67.5226   92.1322   10.8648 C.ar    1  UNL1       -0.0019
     44 C          68.0431   92.6864    9.5718 C.ar    1  UNL1       -0.0002
     45 C          67.6662   94.0741    9.1448 C.ar    1  UNL1       -0.0000
     46 C          66.7688   94.9076   10.0108 C.ar    1  UNL1       -0.0002
     47 C          66.2482   94.3533   11.3039 C.ar    1  UNL1       -0.0019
@<TRIPOS>BOND
     1     2     3    1
     2     3     1    1
     3     1     4    1
     4     4     5    1
     5     5    17    1
     6    17    18    1
     7    18    19    1
     8    19    20    1
     9    20    21   ar
    10    21    22   ar
    11    22    23   ar
    12    23    24   ar
    13    24    25   ar
    14     5     6    1
    15     6     7   am
    16     7     8    2
    17     7    10    1
    18    10    11    1
    19    11    12    1
    20    12    13   ar
    21    13    14   ar
    22    14    15   ar
    23    15    16   ar
    24     1    26    1
    25    26    27    1
    26    27    39    1
    27    39    40    1
    28    40    41    1
    29    41    42    1
    30    42    43   ar
    31    43    44   ar
    32    44    45   ar
    33    45    46   ar
    34    46    47   ar
    35    27    28    1
    36    28    29   am
    37    29    30    2
    38    29    32    1
    39    32    33    1
    40    33    34    1
    41    34    35   ar
    42    35    36   ar
    43    36    37   ar
    44    37    38   ar
    45    25    20   ar
    46    16    12   ar
    47    47    42   ar
    48    38    34   ar
    49     6     9    1
    50    28    31    1
@<TRIPOS>MOLECULE
*****
 47 50 0 0 0
SMALL
GASTEIGER

@<TRIPOS>ATOM
      1 N          62.0792   89.7848   11.5602 N.3     1  UNL1       -0.2698
      2 C          63.2593   91.5257   10.0351 C.3     1  UNL1        0.0188
      3 C          63.0990   90.1120   10.5101 C.3     1  UNL1        0.0722
      4 C          60.7792   89.1461   11.1701 C.3     1  UNL1        0.0946
      5 C          60.7196   88.2312    9.9830 C.3     1  UNL1        0.1202
      6 N          60.4617   88.7922    8.6159 N.am    1  UNL1       -0.2684
      7 C          59.4046   88.1839    7.7427 C.2     1  UNL1        0.4020
      8 O          58.6054   87.0145    8.2365 O.2     1  UNL1       -0.2264
      9 H          60.9863   89.5597    8.2918 H       1  UNL1        0.1528
     10 O          59.1468   88.7448    6.3757 O.3     1  UNL1       -0.4291
     11 C          58.7106   90.1716    6.2205 C.3     1  UNL1        0.2447
     12 C          59.3735   91.0521    5.2030 C.ar    1  UNL1        0.0714
     13 C          60.8214   91.0134    4.8130 C.ar    1  UNL1        0.1053
     14 N          61.0477   92.0634    3.7658 N.ar    1  UNL1       -0.2350
     15 C          59.7395   92.7509    3.5087 C.ar    1  UNL1        0.1343
     16 S          58.7049   92.1260    4.3968 S.2     1  UNL1       -0.0652
     17 C          60.9177   86.7553   10.1628 C.3     1  UNL1        0.1635
     18 O          61.1404   86.1901   11.5343 O.3     1  UNL1       -0.3472
     19 C          62.4843   85.6396   11.9095 C.3     1  UNL1        0.1687
     20 C          62.8782   84.2597   11.4726 C.ar    1  UNL1        0.0073
     21 C          63.8518   84.0791   10.3458 C.ar    1  UNL1       -0.0019
     22 C          64.2456   82.6992    9.9090 C.ar    1  UNL1       -0.0002
     23 C          63.6659   81.5000   10.5989 C.ar    1  UNL1       -0.0000
     24 C          62.6924   81.6807   11.7257 C.ar    1  UNL1       -0.0002
     25 C          62.2985   83.0606   12.1625 C.ar    1  UNL1       -0.0019
     26 C          62.3594   90.0961   13.0006 C.3     1  UNL1        0.0946
     27 C          63.7526   89.9612   13.5398 C.3     1  UNL1        0.1202
     28 N          64.8215   90.9190   13.1039 N.am    1  UNL1       -0.2684
     29 C          65.3478   91.9436   14.0647 C.2     1  UNL1        0.4021
     30 O          64.8051   92.0105   15.4615 O.2     1  UNL1       -0.2264
     31 H          65.1777   90.8751   12.1871 H       1  UNL1        0.1528
     32 O          66.4167   92.9014   13.6288 O.3     1  UNL1       -0.4274
     33 C          66.1885   93.7908   12.4426 C.3     1  UNL1        0.2621
     34 C          66.9337   93.5428   11.1647 C.ar    1  UNL1        0.1323
     35 N          67.8217   92.3689   10.8755 N.ar    1  UNL1       -0.2374
     36 C          68.3586   92.5257    9.4837 C.ar    1  UNL1        0.1062
     37 C          67.8026   93.7965    8.9128 C.ar    1  UNL1        0.0573
     38 S          66.9219   94.4251    9.9517 S.2     1  UNL1       -0.0666
     39 C          64.0768   88.8686   14.5150 C.3     1  UNL1        0.1635
     40 O          63.2138   88.6622   15.7243 O.3     1  UNL1       -0.3472
     41 C          63.4210   87.4601   16.5973 C.3     1  UNL1        0.1687
     42 C          63.6541   86.1142   15.9774 C.ar    1  UNL1        0.0073
     43 C          62.6759   85.0013   16.2110 C.ar    1  UNL1       -0.0019
     44 C          62.9089   83.6555   15.5911 C.ar    1  UNL1       -0.0002
     45 C          64.1203   83.4224   14.7376 C.ar    1  UNL1       -0.0000
     46 C          65.0986   84.5353   14.5041 C.ar    1  UNL1       -0.0002
     47 C          64.8654   85.8812   15.1240 C.ar    1  UNL1       -0.0019
@<TRIPOS>BOND
     1     2     3    1
     2     3     1    1
     3     1     4    1
     4     4     5    1
     5     5    17    1
     6    17    18    1
     7    18    19    1
     8    19    20    1
     9    20    21   ar
    10    21    22   ar
    11    22    23   ar
    12    23    24   ar
    13    24    25   ar
    14     5     6    1
    15     6     7   am
    16     7     8    2
    17     7    10    1
    18    10    11    1
    19    11    12    1
    20    12    13   ar
    21    13    14   ar
    22    14    15   ar
    23    15    16   ar
    24     1    26    1
    25    26    27    1
    26    27    39    1
    27    39    40    1
    28    40    41    1
    29    41    42    1
    30    42    43   ar
    31    43    44   ar
    32    44    45   ar
    33    45    46   ar
    34    46    47   ar
    35    27    28    1
    36    28    29   am
    37    29    30    2
    38    29    32    1
    39    32    33    1
    40    33    34    1
    41    34    35   ar
    42    35    36   ar
    43    36    37   ar
    44    37    38   ar
    45    25    20   ar
    46    16    12   ar
    47    47    42   ar
    48    38    34   ar
    49     6     9    1
    50    28    31    1
@<TRIPOS>MOLECULE
*****
 47 50 0 0 0
SMALL
GASTEIGER

@<TRIPOS>ATOM
      1 N          63.5555   88.3722   15.9416 N.3     1  UNL1       -0.2698
      2 C          62.8399   86.6139   17.7153 C.3     1  UNL1        0.0188
      3 C          62.7077   87.9826   17.1161 C.3     1  UNL1        0.0722
      4 C          64.5392   87.3948   15.3696 C.3     1  UNL1        0.0946
      5 C          64.0888   86.3818   14.3592 C.3     1  UNL1        0.1202
      6 N          64.2939   84.9190   14.6209 N.am    1  UNL1       -0.2684
      7 C          63.1332   84.0597   15.0264 C.2     1  UNL1        0.4020
      8 O          61.7674   84.6632   15.1702 O.2     1  UNL1       -0.2264
      9 H          65.1903   84.5230   14.5266 H       1  UNL1        0.1528
     10 O          63.3382   82.5971   15.2881 O.3     1  UNL1       -0.4291
     11 C          62.9945   81.5905   14.2304 C.3     1  UNL1        0.2447
     12 C          63.4330   81.8122   12.8132 C.ar    1  UNL1        0.0714
     13 C          64.6400   82.5875   12.3748 C.ar    1  UNL1        0.1053
     14 N          64.6945   82.5520   10.8761 N.ar    1  UNL1       -0.2350
     15 C          63.5211   81.7549   10.3884 C.ar    1  UNL1        0.1343
     16 S          62.7415   81.2977   11.5855 S.2     1  UNL1       -0.0652
     17 C          63.4333   86.8314   13.0872 C.3     1  UNL1        0.1635
     18 O          62.7573   85.8308   12.1974 O.3     1  UNL1       -0.3472
     19 C          61.6230   86.2583   11.3141 C.3     1  UNL1        0.1687
     20 C          61.6368   85.9114    9.8548 C.ar    1  UNL1        0.0073
     21 C          60.4470   86.2271    8.9975 C.ar    1  UNL1       -0.0019
     22 C          60.4609   85.8802    7.5382 C.ar    1  UNL1       -0.0002
     23 C          61.6645   85.2175    6.9363 C.ar    1  UNL1       -0.0000
     24 C          62.8542   84.9018    7.7936 C.ar    1  UNL1       -0.0002
     25 C          62.8403   85.2487    9.2528 C.ar    1  UNL1       -0.0019
     26 C          63.4196   89.7391   15.3391 C.3     1  UNL1        0.0946
     27 C          64.4318   90.2241   14.3441 C.3     1  UNL1        0.1202
     28 N          64.2596   89.9132   12.8868 N.am    1  UNL1       -0.2684
     29 C          63.8499   90.9955   11.9323 C.2     1  UNL1        0.4021
     30 O          63.6125   92.3886   12.4352 O.2     1  UNL1       -0.2264
     31 H          64.4154   88.9989   12.5568 H       1  UNL1        0.1528
     32 O          63.6777   90.6845   10.4751 O.3     1  UNL1       -0.4274
     33 C          62.4373   89.9888    9.9981 C.3     1  UNL1        0.2621
     34 C          61.2279   89.9212   10.8829 C.ar    1  UNL1        0.1323
     35 N          61.2011   89.4431   12.3044 N.ar    1  UNL1       -0.2374
     36 C          59.7897   89.5463   12.8016 C.ar    1  UNL1        0.1062
     37 C          58.9442   90.0882   11.6873 C.ar    1  UNL1        0.0573
     38 S          59.8331   90.3199   10.5015 S.2     1  UNL1       -0.0666
     39 C          65.6163   91.0200   14.8063 C.3     1  UNL1        0.1635
     40 O          65.5203   92.5129   14.9155 O.3     1  UNL1       -0.3472
     41 C          66.5659   93.3802   14.2796 C.3     1  UNL1        0.1687
     42 C          66.6579   93.4708   12.7851 C.ar    1  UNL1        0.0073
     43 C          66.1978   94.7117   12.0792 C.ar    1  UNL1       -0.0019
     44 C          66.2897   94.8023   10.5847 C.ar    1  UNL1       -0.0002
     45 C          66.8417   93.6518    9.7962 C.ar    1  UNL1       -0.0000
     46 C          67.3018   92.4108   10.5021 C.ar    1  UNL1       -0.0002
     47 C          67.2099   92.3203   11.9966 C.ar    1  UNL1       -0.0019
@<TRIPOS>BOND
     1     2     3    1
     2     3     1    1
     3     1     4    1
     4     4     5    1
     5     5    17    1
     6    17    18    1
     7    18    19    1
     8    19    20    1
     9    20    21   ar
    10    21    22   ar
    11    22    23   ar
    12    23    24   ar
    13    24    25   ar
    14     5     6    1
    15     6     7   am
    16     7     8    2
    17     7    10    1
    18    10    11    1
    19    11    12    1
    20    12    13   ar
    21    13    14   ar
    22    14    15   ar
    23    15    16   ar
    24     1    26    1
    25    26    27    1
    26    27    39    1
    27    39    40    1
    28    40    41    1
    29    41    42    1
    30    42    43   ar
    31    43    44   ar
    32    44    45   ar
    33    45    46   ar
    34    46    47   ar
    35    27    28    1
    36    28    29   am
    37    29    30    2
    38    29    32    1
    39    32    33    1
    40    33    34    1
    41    34    35   ar
    42    35    36   ar
    43    36    37   ar
    44    37    38   ar
    45    25    20   ar
    46    16    12   ar
    47    47    42   ar
    48    38    34   ar
    49     6     9    1
    50    28    31    1
@<TRIPOS>MOLECULE
*****
 47 50 0 0 0
SMALL
GASTEIGER

@<TRIPOS>ATOM
      1 N          63.5005   88.6204   15.4776 N.3     1  UNL1       -0.2698
      2 C          62.8157   87.1770   17.5264 C.3     1  UNL1        0.0188
      3 C          63.1262   88.5162   16.9264 C.3     1  UNL1        0.0722
      4 C          64.4489   87.6268   14.8747 C.3     1  UNL1        0.0946
      5 C          63.9512   86.6270   13.8734 C.3     1  UNL1        0.1202
      6 N          64.2019   85.1635   14.0866 N.am    1  UNL1       -0.2684
      7 C          63.1543   84.3102   14.7380 C.2     1  UNL1        0.4020
      8 O          61.8559   84.9204   15.1762 O.2     1  UNL1       -0.2264
      9 H          65.0541   84.7630   13.7990 H       1  UNL1        0.1528
     10 O          63.4050   82.8468   14.9512 O.3     1  UNL1       -0.4291
     11 C          62.6901   81.8328   14.1081 C.3     1  UNL1        0.2447
     12 C          63.0369   81.6860   12.6562 C.ar    1  UNL1        0.0714
     13 C          62.7209   80.5032   11.7894 C.ar    1  UNL1        0.1053
     14 N          63.2494   80.7824   10.4135 N.ar    1  UNL1       -0.2350
     15 C          63.8920   82.1378   10.4300 C.ar    1  UNL1        0.1343
     16 S          63.7607   82.6961   11.8160 S.2     1  UNL1       -0.0652
     17 C          63.2027   87.0906   12.6590 C.3     1  UNL1        0.1635
     18 O          62.1871   86.1933   12.0161 O.3     1  UNL1       -0.3472
     19 C          62.2037   85.9851   10.5307 C.3     1  UNL1        0.1687
     20 C          61.3109   86.8060    9.6482 C.ar    1  UNL1        0.0073
     21 C          60.4340   86.1327    8.6343 C.ar    1  UNL1       -0.0019
     22 C          59.5412   86.9537    7.7518 C.ar    1  UNL1       -0.0002
     23 C          59.5251   88.4479    7.8832 C.ar    1  UNL1       -0.0000
     24 C          60.4019   89.1211    8.8971 C.ar    1  UNL1       -0.0002
     25 C          61.2948   88.3001    9.7796 C.ar    1  UNL1       -0.0019
     26 C          62.9265   89.7180   14.6317 C.3     1  UNL1        0.0946
     27 C          63.8386   90.6921   13.9467 C.3     1  UNL1        0.1202
     28 N          65.0335   91.2375   14.6711 N.am    1  UNL1       -0.2684
     29 C          64.8543   91.9723   15.9665 C.2     1  UNL1        0.4021
     30 O          63.4802   92.1617   16.5374 O.2     1  UNL1       -0.2264
     31 H          65.9353   91.1131   14.2963 H       1  UNL1        0.1528
     32 O          66.0492   92.5177   16.6909 O.3     1  UNL1       -0.4274
     33 C          67.0285   93.3945   15.9683 C.3     1  UNL1        0.2621
     34 C          67.9971   92.7927   14.9938 C.ar    1  UNL1        0.1323
     35 N          67.6429   92.1117   13.7051 N.ar    1  UNL1       -0.2374
     36 C          68.9169   91.6643   13.0518 C.ar    1  UNL1        0.1062
     37 C          70.0585   92.0688   13.9368 C.ar    1  UNL1        0.0573
     38 S          69.4900   92.7662   15.1370 S.2     1  UNL1       -0.0666
     39 C          63.5558   91.1207   12.5373 C.3     1  UNL1        0.1635
     40 O          64.6739   91.6031   11.6615 O.3     1  UNL1       -0.3472
     41 C          65.2814   92.9542   11.8967 C.3     1  UNL1        0.1687
     42 C          66.0758   93.6186   10.8115 C.ar    1  UNL1        0.0073
     43 C          67.1679   92.8645   10.1126 C.ar    1  UNL1       -0.0019
     44 C          67.9622   93.5288    9.0274 C.ar    1  UNL1       -0.0002
     45 C          67.6644   94.9474    8.6410 C.ar    1  UNL1       -0.0000
     46 C          66.5722   95.7015    9.3399 C.ar    1  UNL1       -0.0002
     47 C          65.7779   95.0371   10.4252 C.ar    1  UNL1       -0.0019
@<TRIPOS>BOND
     1     2     3    1
     2     3     1    1
     3     1     4    1
     4     4     5    1
     5     5    17    1
     6    17    18    1
     7    18    19    1
     8    19    20    1
     9    20    21   ar
    10    21    22   ar
    11    22    23   ar
    12    23    24   ar
    13    24    25   ar
    14     5     6    1
    15     6     7   am
    16     7     8    2
    17     7    10    1
    18    10    11    1
    19    11    12    1
    20    12    13   ar
    21    13    14   ar
    22    14    15   ar
    23    15    16   ar
    24     1    26    1
    25    26    27    1
    26    27    39    1
    27    39    40    1
    28    40    41    1
    29    41    42    1
    30    42    43   ar
    31    43    44   ar
    32    44    45   ar
    33    45    46   ar
    34    46    47   ar
    35    27    28    1
    36    28    29   am
    37    29    30    2
    38    29    32    1
    39    32    33    1
    40    33    34    1
    41    34    35   ar
    42    35    36   ar
    43    36    37   ar
    44    37    38   ar
    45    25    20   ar
    46    16    12   ar
    47    47    42   ar
    48    38    34   ar
    49     6     9    1
    50    28    31    1
