@<TRIPOS>MOLECULE
*****
 64 71 0 0 0
SMALL
GASTEIGER

@<TRIPOS>ATOM
      1 N          65.6166   89.2548   14.5302 N.3     1  UNL1       -0.1862
      2 C          65.8949   88.0105   15.3202 C.3     1  UNL1        0.1775
      3 C          65.0934   86.7677   15.0691 C.2     1  UNL1        0.2452
      4 O          65.3718   85.5233   15.8592 O.2     1  UNL1       -0.2732
      5 N          64.0136   86.7692   14.0280 N.am    1  UNL1       -0.2541
      6 C          63.2121   85.5264   13.7769 C.3     1  UNL1        0.1577
      7 C          62.1323   85.5279   12.7358 C.2     1  UNL1        0.2445
      8 O          61.3308   84.2851   12.4847 O.2     1  UNL1       -0.2731
      9 N          61.8539   86.7723   11.9457 N.am    1  UNL1       -0.2705
     10 C          62.6554   88.0151   12.1968 C.3     1  UNL1        0.1359
     11 C          63.7353   88.0135   13.2380 C.3     1  UNL1        0.1908
     12 N          64.5368   89.2563   13.4891 N.am    1  UNL1       -0.1863
     13 C          64.2584   90.5007   12.6990 C.2     1  UNL1        0.3191
     14 O          63.1786   90.5022   11.6579 O.2     1  UNL1       -0.2512
     15 N          65.0599   91.7435   12.9502 N.am    1  UNL1       -0.2836
     16 H          65.7686   91.7425   13.6335 H       1  UNL1        0.1513
     17 C          66.4181   90.4976   14.7813 C.3     1  UNL1        0.1188
     18 C          66.7493   92.7239   16.0788 C.2     1  UNL1       -0.0034
     19 C          65.8787   91.5685   15.6825 C.2     1  UNL1       -0.0071
     20 C          63.4904   84.2821   14.5669 C.3     1  UNL1        0.0556
     21 C          63.2304   82.9349   13.9607 C.ar    1  UNL1       -0.0198
     22 C          64.0792   82.4474   12.8241 C.ar    1  UNL1       -0.0011
     23 C          63.8191   81.1002   12.2179 C.ar    1  UNL1        0.0363
     24 C          62.7102   80.2406   12.7482 C.ar    1  UNL1        0.1337
     25 O          62.4502   78.8934   12.1420 O.3     1  UNL1       -0.5055
     26 C          61.8614   80.7280   13.8848 C.ar    1  UNL1        0.0363
     27 C          62.1214   82.0752   14.4911 C.ar    1  UNL1       -0.0011
     28 H          62.9804   78.5889   11.4320 H       1  UNL1        0.2922
     29 C          60.7741   86.7738   10.9046 C.3     1  UNL1        0.1217
     30 C          60.3703   88.0589   10.2447 C.ar    1  UNL1        0.0135
     31 C          60.0097   89.2506   11.0813 C.ar    1  UNL1       -0.0012
     32 C          59.6059   90.5357   10.4214 C.ar    1  UNL1       -0.0002
     33 C          59.5628   90.6291    8.9250 C.ar    1  UNL1        0.0015
     34 C          59.9234   89.4375    8.0884 C.ar    1  UNL1        0.0170
     35 C          59.9730   89.2316    6.6034 C.ar    1  UNL1        0.0186
     36 C          60.4074   87.8192    6.3456 C.ar    1  UNL1        0.0759
     37 N          60.6263   87.1523    7.6711 N.ar    1  UNL1       -0.3242
     38 C          61.0670   85.7341    7.8824 C.3     1  UNL1        0.1305
     39 C          60.3272   88.1524    8.7482 C.ar    1  UNL1        0.0575
     40 C          59.6456   90.2579    5.5596 C.ar    1  UNL1        0.0016
     41 C          60.7424   90.8697    4.7393 C.ar    1  UNL1        0.0013
     42 C          60.4149   91.8960    3.6956 C.ar    1  UNL1        0.0147
     43 C          58.9908   92.3105    3.4720 C.ar    1  UNL1        0.0516
     44 C          57.8940   91.6987    4.2923 C.ar    1  UNL1        0.0147
     45 C          58.2215   90.6724    5.3360 C.ar    1  UNL1        0.0013
     46 N          58.6634   93.3368    2.4282 N.am    1  UNL1       -0.2683
     47 C          59.3429   93.2905    1.0917 C.2     1  UNL1        0.3044
     48 O          60.3497   92.2178    0.7990 O.2     1  UNL1       -0.2525
     49 N          59.0154   94.3168    0.0479 N.am    1  UNL1       -0.2903
     50 H          58.0026   94.0408    2.6203 H       1  UNL1        0.1564
     51 H          58.3546   95.0208    0.2401 H       1  UNL1        0.1509
     52 C          59.6949   94.2704   -1.2886 C.3     1  UNL1        0.0730
     53 C          61.1388   94.6580   -1.4097 C.3     1  UNL1        0.0196
     54 C          61.8183   94.6117   -2.7462 C.3     1  UNL1        0.0017
     55 C          61.0537   94.1776   -3.9616 C.3     1  UNL1        0.0001
     56 C          59.6098   93.7899   -3.8405 C.3     1  UNL1        0.0017
     57 C          58.9304   93.8364   -2.5039 C.3     1  UNL1        0.0196
     58 C          64.7816   92.9878   12.1602 C.3     1  UNL1        0.1177
     59 C          65.7942   93.4935   11.1759 C.ar    1  UNL1       -0.0025
     60 C          65.7954   94.9395   10.7771 C.ar    1  UNL1       -0.0026
     61 C          66.8081   95.4452    9.7929 C.ar    1  UNL1       -0.0003
     62 C          67.8196   94.5050    9.2075 C.ar    1  UNL1       -0.0000
     63 C          67.8185   93.0590    9.6063 C.ar    1  UNL1       -0.0003
     64 C          66.8058   92.5532   10.5905 C.ar    1  UNL1       -0.0026
@<TRIPOS>BOND
     1    18    19    2
     2    19    17    1
     3    17     1    1
     4     1     2    1
     5     2     3    1
     6     3     4    2
     7     3     5   am
     8     5     6    1
     9     6    20    1
    10    20    21    1
    11    21    22   ar
    12    22    23   ar
    13    23    24   ar
    14    24    25    1
    15    24    26   ar
    16    26    27   ar
    17     6     7    1
    18     7     8    2
    19     7     9   am
    20     9    29    1
    21    29    30    1
    22    30    31   ar
    23    31    32   ar
    24    32    33   ar
    25    33    34   ar
    26    34    35   ar
    27    35    40    1
    28    40    41   ar
    29    41    42   ar
    30    42    43   ar
    31    43    46    1
    32    46    47   am
    33    47    48    2
    34    47    49   am
    35    49    52    1
    36    52    53    1
    37    53    54    1
    38    54    55    1
    39    55    56    1
    40    56    57    1
    41    43    44   ar
    42    44    45   ar
    43    35    36   ar
    44    36    37   ar
    45    37    38    1
    46    37    39   ar
    47     9    10    1
    48    11    10    1
    49    11    12    1
    50    12    13   am
    51    13    14    2
    52    13    15   am
    53    15    58    1
    54    58    59    1
    55    59    60   ar
    56    60    61   ar
    57    61    62   ar
    58    62    63   ar
    59    63    64   ar
    60    12     1    1
    61    64    59   ar
    62    11     5    1
    63    27    21   ar
    64    39    30   ar
    65    39    34   ar
    66    45    40   ar
    67    57    52    1
    68    25    28    1
    69    46    50    1
    70    49    51    1
    71    15    16    1
@<TRIPOS>MOLECULE
*****
 64 71 0 0 0
SMALL
GASTEIGER

@<TRIPOS>ATOM
      1 N          64.5718   83.1116   13.2928 N.3     1  UNL1       -0.1862
      2 C          65.1995   83.9805   14.3421 C.3     1  UNL1        0.1775
      3 C          64.7910   85.4183   14.4680 C.2     1  UNL1        0.2452
      4 O          65.4187   86.2872   15.5173 O.2     1  UNL1       -0.2732
      5 N          63.7548   85.9872   13.5447 N.am    1  UNL1       -0.2541
      6 C          63.3463   87.4250   13.6706 C.3     1  UNL1        0.1577
      7 C          62.3101   87.9939   12.7473 C.2     1  UNL1        0.2445
      8 O          61.9016   89.4317   12.8732 O.2     1  UNL1       -0.2731
      9 N          61.6823   87.1251   11.6980 N.am    1  UNL1       -0.2705
     10 C          62.0908   85.6873   11.5720 C.3     1  UNL1        0.1359
     11 C          63.1271   85.1183   12.4954 C.3     1  UNL1        0.1908
     12 N          63.5356   83.6805   12.3695 N.am    1  UNL1       -0.1863
     13 C          62.9078   82.8117   11.3201 C.2     1  UNL1        0.3191
     14 O          61.8716   83.3806   10.3968 O.2     1  UNL1       -0.2512
     15 N          63.3163   81.3739   11.1942 N.am    1  UNL1       -0.2836
     16 H          63.9964   81.0005   11.8002 H       1  UNL1        0.1513
     17 C          64.9803   81.6738   13.1669 C.3     1  UNL1        0.1188
     18 C          62.7987   80.7686   14.2491 C.2     1  UNL1       -0.0034
     19 C          64.2616   80.6183   13.9538 C.2     1  UNL1       -0.0071
     20 C          63.9740   88.2939   14.7199 C.3     1  UNL1        0.0556
     21 C          64.5472   89.6282   14.3443 C.ar    1  UNL1       -0.0198
     22 C          64.2826   90.2020   12.9839 C.ar    1  UNL1       -0.0011
     23 C          64.8559   91.5363   12.6083 C.ar    1  UNL1        0.0363
     24 C          65.6938   92.2967   13.5930 C.ar    1  UNL1        0.1337
     25 O          66.2671   93.6309   13.2173 O.3     1  UNL1       -0.5055
     26 C          65.9585   91.7228   14.9534 C.ar    1  UNL1        0.0363
     27 C          65.3852   90.3885   15.3290 C.ar    1  UNL1       -0.0011
     28 H          66.1017   93.9894   12.3675 H       1  UNL1        0.2922
     29 C          60.6461   87.6940   10.7746 C.3     1  UNL1        0.1217
     30 C          60.9930   88.8430    9.8749 C.ar    1  UNL1        0.0135
     31 C          62.0113   89.8550   10.3094 C.ar    1  UNL1       -0.0012
     32 C          62.3583   91.0039    9.4097 C.ar    1  UNL1       -0.0002
     33 C          61.6868   91.1409    8.0754 C.ar    1  UNL1        0.0015
     34 C          60.6685   90.1289    7.6408 C.ar    1  UNL1        0.0170
     35 C          59.8479   90.0034    6.3915 C.ar    1  UNL1        0.0186
     36 C          58.9938   88.7770    6.5191 C.ar    1  UNL1        0.0759
     37 N          59.2866   88.1444    7.8473 N.ar    1  UNL1       -0.3242
     38 C          58.6552   86.8956    8.3874 C.3     1  UNL1        0.1305
     39 C          60.3216   88.9799    8.5406 C.ar    1  UNL1        0.0575
     40 C          59.8764   90.9401    5.2202 C.ar    1  UNL1        0.0016
     41 C          61.1766   91.2510    4.5399 C.ar    1  UNL1        0.0013
     42 C          61.2050   92.1876    3.3687 C.ar    1  UNL1        0.0147
     43 C          59.9332   92.8133    2.8776 C.ar    1  UNL1        0.0516
     44 C          58.6330   92.5024    3.5579 C.ar    1  UNL1        0.0147
     45 C          58.6046   91.5658    4.7291 C.ar    1  UNL1        0.0013
     46 N          59.9617   93.7500    1.7063 N.am    1  UNL1       -0.2683
     47 C          61.0264   93.6092    0.6591 C.2     1  UNL1        0.3044
     48 O          62.0626   92.5318    0.7832 O.2     1  UNL1       -0.2525
     49 N          61.0548   94.5458   -0.5122 N.am    1  UNL1       -0.2903
     50 H          59.2816   94.4571    1.6249 H       1  UNL1        0.1564
     51 H          60.3747   95.2530   -0.5936 H       1  UNL1        0.1509
     52 C          62.1195   94.4050   -1.5594 C.3     1  UNL1        0.0730
     53 C          61.8958   93.5078   -2.7405 C.3     1  UNL1        0.0196
     54 C          62.9605   93.3670   -3.7877 C.3     1  UNL1        0.0017
     55 C          64.2489   94.1234   -3.6537 C.3     1  UNL1        0.0001
     56 C          64.4727   95.0206   -2.4726 C.3     1  UNL1        0.0017
     57 C          63.4079   95.1614   -1.4255 C.3     1  UNL1        0.0196
     58 C          62.6886   80.5050   10.1449 C.3     1  UNL1        0.1177
     59 C          63.0836   79.0624   10.0311 C.ar    1  UNL1       -0.0025
     60 C          64.0433   78.6296    8.9626 C.ar    1  UNL1       -0.0026
     61 C          64.4382   77.1870    8.8488 C.ar    1  UNL1       -0.0003
     62 C          63.8734   76.1772    9.8033 C.ar    1  UNL1       -0.0000
     63 C          62.9137   76.6100   10.8718 C.ar    1  UNL1       -0.0003
     64 C          62.5187   78.0526   10.9857 C.ar    1  UNL1       -0.0026
@<TRIPOS>BOND
     1    18    19    2
     2    19    17    1
     3    17     1    1
     4     1     2    1
     5     2     3    1
     6     3     4    2
     7     3     5   am
     8     5     6    1
     9     6    20    1
    10    20    21    1
    11    21    22   ar
    12    22    23   ar
    13    23    24   ar
    14    24    25    1
    15    24    26   ar
    16    26    27   ar
    17     6     7    1
    18     7     8    2
    19     7     9   am
    20     9    29    1
    21    29    30    1
    22    30    31   ar
    23    31    32   ar
    24    32    33   ar
    25    33    34   ar
    26    34    35   ar
    27    35    40    1
    28    40    41   ar
    29    41    42   ar
    30    42    43   ar
    31    43    46    1
    32    46    47   am
    33    47    48    2
    34    47    49   am
    35    49    52    1
    36    52    53    1
    37    53    54    1
    38    54    55    1
    39    55    56    1
    40    56    57    1
    41    43    44   ar
    42    44    45   ar
    43    35    36   ar
    44    36    37   ar
    45    37    38    1
    46    37    39   ar
    47     9    10    1
    48    11    10    1
    49    11    12    1
    50    12    13   am
    51    13    14    2
    52    13    15   am
    53    15    58    1
    54    58    59    1
    55    59    60   ar
    56    60    61   ar
    57    61    62   ar
    58    62    63   ar
    59    63    64   ar
    60    12     1    1
    61    64    59   ar
    62    11     5    1
    63    27    21   ar
    64    39    30   ar
    65    39    34   ar
    66    45    40   ar
    67    57    52    1
    68    25    28    1
    69    46    50    1
    70    49    51    1
    71    15    16    1
@<TRIPOS>MOLECULE
*****
 64 71 0 0 0
SMALL
GASTEIGER

@<TRIPOS>ATOM
      1 N          64.5119   83.1237   13.3496 N.3     1  UNL1       -0.1862
      2 C          65.1037   83.9727   14.4353 C.3     1  UNL1        0.1775
      3 C          64.6914   85.4083   14.5737 C.2     1  UNL1        0.2452
      4 O          65.2834   86.2572   15.6596 O.2     1  UNL1       -0.2732
      5 N          63.6873   85.9949   13.6264 N.am    1  UNL1       -0.2541
      6 C          63.2750   87.4304   13.7648 C.3     1  UNL1        0.1577
      7 C          62.2708   88.0170   12.8175 C.2     1  UNL1        0.2445
      8 O          61.8585   89.4526   12.9559 O.2     1  UNL1       -0.2731
      9 N          61.6789   87.1680   11.7316 N.am    1  UNL1       -0.2705
     10 C          62.0912   85.7325   11.5932 C.3     1  UNL1        0.1359
     11 C          63.0954   85.1459   12.5407 C.3     1  UNL1        0.1908
     12 N          63.5077   83.7103   12.4022 N.am    1  UNL1       -0.1863
     13 C          62.9158   82.8614   11.3164 C.2     1  UNL1        0.3191
     14 O          61.9116   83.4480   10.3691 O.2     1  UNL1       -0.2512
     15 N          63.3281   81.4258   11.1780 N.am    1  UNL1       -0.2836
     16 H          63.9872   81.0408   11.7998 H       1  UNL1        0.1513
     17 C          64.9242   81.6882   13.2112 C.3     1  UNL1        0.1188
     18 C          62.7175   80.6411   14.0968 C.2     1  UNL1       -0.0034
     19 C          64.2140   80.6249   13.9954 C.2     1  UNL1       -0.0071
     20 C          63.8668   88.2794   14.8506 C.3     1  UNL1        0.0556
     21 C          64.3934   89.6469   14.5304 C.ar    1  UNL1       -0.0198
     22 C          64.5967   90.0568   13.1019 C.ar    1  UNL1       -0.0011
     23 C          65.1233   91.4244   12.7817 C.ar    1  UNL1        0.0363
     24 C          65.4465   92.3821   13.8900 C.ar    1  UNL1        0.1337
     25 O          65.9730   93.7496   13.5698 O.3     1  UNL1       -0.5055
     26 C          65.2431   91.9722   15.3186 C.ar    1  UNL1        0.0363
     27 C          64.7166   90.6046   15.6388 C.ar    1  UNL1       -0.0011
     28 H          66.1000   94.0057   12.6774 H       1  UNL1        0.2922
     29 C          60.6747   87.7546   10.7843 C.3     1  UNL1        0.1217
     30 C          61.0643   88.8932    9.8888 C.ar    1  UNL1        0.0135
     31 C          62.0930   89.8862   10.3425 C.ar    1  UNL1       -0.0012
     32 C          62.4826   91.0247    9.4471 C.ar    1  UNL1       -0.0002
     33 C          61.8436   91.1703    8.0979 C.ar    1  UNL1        0.0015
     34 C          60.8149   90.1774    7.6441 C.ar    1  UNL1        0.0170
     35 C          60.0196   90.0639    6.3774 C.ar    1  UNL1        0.0186
     36 C          59.1384   88.8553    6.4900 C.ar    1  UNL1        0.0759
     37 N          59.3892   88.2217    7.8263 N.ar    1  UNL1       -0.3242
     38 C          58.7211   86.9877    8.3563 C.3     1  UNL1        0.1305
     39 C          60.4253   89.0388    8.5396 C.ar    1  UNL1        0.0575
     40 C          60.0926   90.9956    5.2040 C.ar    1  UNL1        0.0016
     41 C          61.3789   91.1503    4.4481 C.ar    1  UNL1        0.0013
     42 C          61.4519   92.0819    3.2748 C.ar    1  UNL1        0.0147
     43 C          60.2386   92.8589    2.8575 C.ar    1  UNL1        0.0516
     44 C          58.9523   92.7043    3.6134 C.ar    1  UNL1        0.0147
     45 C          58.8793   91.7726    4.7867 C.ar    1  UNL1        0.0013
     46 N          60.3117   93.7906    1.6842 N.am    1  UNL1       -0.2683
     47 C          59.4265   93.5684    0.4937 C.2     1  UNL1        0.3044
     48 O          58.4683   92.4145    0.4766 O.2     1  UNL1       -0.2525
     49 N          59.4996   94.5001   -0.6796 N.am    1  UNL1       -0.2903
     50 H          60.9406   94.5479    1.6954 H       1  UNL1        0.1564
     51 H          60.1285   95.2574   -0.6683 H       1  UNL1        0.1509
     52 C          58.6144   94.2778   -1.8700 C.3     1  UNL1        0.0730
     53 C          59.1495   93.5734   -3.0814 C.3     1  UNL1        0.0196
     54 C          58.2643   93.3511   -4.2718 C.3     1  UNL1        0.0017
     55 C          56.8440   93.8334   -4.2508 C.3     1  UNL1        0.0001
     56 C          56.3090   94.5379   -3.0394 C.3     1  UNL1        0.0017
     57 C          57.1942   94.7601   -1.8490 C.3     1  UNL1        0.0196
     58 C          62.7362   80.5768   10.0922 C.3     1  UNL1        0.1177
     59 C          63.1009   79.1252    9.9923 C.ar    1  UNL1       -0.0025
     60 C          62.5159   78.1369   10.9572 C.ar    1  UNL1       -0.0026
     61 C          62.8805   76.6853   10.8573 C.ar    1  UNL1       -0.0003
     62 C          63.8301   76.2221    9.7926 C.ar    1  UNL1       -0.0000
     63 C          64.4151   77.2105    8.8276 C.ar    1  UNL1       -0.0003
     64 C          64.0505   78.6620    8.9275 C.ar    1  UNL1       -0.0026
@<TRIPOS>BOND
     1    18    19    2
     2    19    17    1
     3    17     1    1
     4     1     2    1
     5     2     3    1
     6     3     4    2
     7     3     5   am
     8     5     6    1
     9     6    20    1
    10    20    21    1
    11    21    22   ar
    12    22    23   ar
    13    23    24   ar
    14    24    25    1
    15    24    26   ar
    16    26    27   ar
    17     6     7    1
    18     7     8    2
    19     7     9   am
    20     9    29    1
    21    29    30    1
    22    30    31   ar
    23    31    32   ar
    24    32    33   ar
    25    33    34   ar
    26    34    35   ar
    27    35    40    1
    28    40    41   ar
    29    41    42   ar
    30    42    43   ar
    31    43    46    1
    32    46    47   am
    33    47    48    2
    34    47    49   am
    35    49    52    1
    36    52    53    1
    37    53    54    1
    38    54    55    1
    39    55    56    1
    40    56    57    1
    41    43    44   ar
    42    44    45   ar
    43    35    36   ar
    44    36    37   ar
    45    37    38    1
    46    37    39   ar
    47     9    10    1
    48    11    10    1
    49    11    12    1
    50    12    13   am
    51    13    14    2
    52    13    15   am
    53    15    58    1
    54    58    59    1
    55    59    60   ar
    56    60    61   ar
    57    61    62   ar
    58    62    63   ar
    59    63    64   ar
    60    12     1    1
    61    64    59   ar
    62    11     5    1
    63    27    21   ar
    64    39    30   ar
    65    39    34   ar
    66    45    40   ar
    67    57    52    1
    68    25    28    1
    69    46    50    1
    70    49    51    1
    71    15    16    1
