@<TRIPOS>MOLECULE
*****
 33 36 0 0 0
SMALL
GASTEIGER

@<TRIPOS>ATOM
      1 C          64.1802   90.9179   12.5425 C.3     1  UNL1        0.2669
      2 N          65.2751   91.4223   13.4351 N.2     1  UNL1       -0.0890
      3 C          65.9180   92.5981   12.7610 C.2     1  UNL1        0.3741
      4 N          67.0582   93.4092   13.3012 N.pl3   1  UNL1       -0.2512
      5 N          65.2203   92.8204   11.4518 N.am    1  UNL1       -0.1416
      6 C          65.5404   93.8927   10.4531 C.3     1  UNL1        0.2160
      7 C          64.1463   91.7819   11.3168 C.2     1  UNL1        0.3314
      8 O          63.2038   91.6336   10.1593 O.2     1  UNL1       -0.2520
      9 H          67.4517   93.1843   14.1752 H       1  UNL1        0.2412
     10 H          67.4132   94.1665   12.7818 H       1  UNL1        0.2412
     11 C          59.0795   90.0651   12.0366 C.3     1  UNL1        0.0342
     12 C          60.4923   89.7752   11.6241 C.ar    1  UNL1        0.0121
     13 C          61.6298   90.4915   12.2895 C.ar    1  UNL1       -0.0015
     14 C          63.0426   90.2016   11.8770 C.ar    1  UNL1        0.0272
     15 C          63.3177   89.1953   10.7992 C.ar    1  UNL1        0.0029
     16 C          62.1801   88.4790   10.1338 C.ar    1  UNL1        0.0366
     17 C          60.7674   88.7690   10.5463 C.ar    1  UNL1        0.1402
     18 O          59.6298   88.0526    9.8808 O.3     1  UNL1       -0.4240
     19 C          59.8215   87.4348    8.5275 C.3     1  UNL1        0.5086
     20 F          60.0930   85.9646    8.4059 F       1  UNL1       -0.1550
     21 F          59.7417   88.2872    7.2958 F       1  UNL1       -0.1550
     22 C          63.9763   89.9041   13.6291 C.ar    1  UNL1        0.0281
     23 C          63.7078   90.3547   15.0344 C.ar    1  UNL1        0.0021
     24 C          63.5039   89.3409   16.1210 C.ar    1  UNL1        0.0301
     25 C          63.5684   87.8765   15.8023 C.ar    1  UNL1        0.1477
     26 F          63.3645   86.8628   16.8888 F       1  UNL1       -0.2035
     27 C          63.8369   87.4260   14.3969 C.ar    1  UNL1        0.0689
     28 C          64.0409   88.4398   13.3103 C.ar    1  UNL1        0.0103
     29 C          63.9015   85.9617   14.0782 C.1     1  UNL1       -0.0622
     30 C          63.9662   84.4974   13.7593 C.1     1  UNL1       -0.0874
     31 C          64.0307   83.0331   13.4406 C.3     1  UNL1        0.0645
     32 C          64.4573   81.9193   12.5310 C.3     1  UNL1        0.0140
     33 C          63.7160   81.6107   13.7981 C.3     1  UNL1        0.0140
@<TRIPOS>BOND
     1    11    12    1
     2    12    13   ar
     3    13    14   ar
     4     1    14    1
     5     1    22    1
     6    22    23   ar
     7    23    24   ar
     8    24    25   ar
     9    25    26    1
    10    25    27   ar
    11    27    29    1
    12    29    30    3
    13    30    31    1
    14    31    32    1
    15    32    33    1
    16    27    28   ar
    17     1     2    1
    18     2     3    2
    19     3     4    1
    20     3     5    1
    21     5     6    1
    22     5     7   am
    23     7     8    2
    24    14    15   ar
    25    15    16   ar
    26    16    17   ar
    27    17    18    1
    28    18    19    1
    29    19    20    1
    30    19    21    1
    31    17    12   ar
    32     7     1    1
    33    28    22   ar
    34    33    31    1
    35     4     9    1
    36     4    10    1
@<TRIPOS>MOLECULE
*****
 33 36 0 0 0
SMALL
GASTEIGER

@<TRIPOS>ATOM
      1 C          64.0306   90.8532   12.5397 C.3     1  UNL1        0.2669
      2 N          64.0216   91.5292   11.2006 N.2     1  UNL1       -0.0890
      3 C          64.9944   92.6699   11.2507 C.2     1  UNL1        0.3741
      4 N          65.3028   93.6155   10.1280 N.pl3   1  UNL1       -0.2512
      5 N          65.6045   92.6990   12.6207 N.am    1  UNL1       -0.1416
      6 C          66.6302   93.6788   13.1084 C.3     1  UNL1        0.2160
      7 C          65.0088   91.5762   13.4174 C.2     1  UNL1        0.3314
      8 O          65.3343   91.2361   14.8416 O.2     1  UNL1       -0.2520
      9 H          64.8480   93.5149    9.2606 H       1  UNL1        0.2412
     10 H          65.9601   94.3368   10.2584 H       1  UNL1        0.2412
     11 C          64.8523   86.3898   15.0701 C.3     1  UNL1        0.0342
     12 C          64.2370   87.7567   15.0133 C.ar    1  UNL1        0.0121
     13 C          64.4414   88.6215   13.8049 C.ar    1  UNL1       -0.0015
     14 C          63.8261   89.9883   13.7481 C.ar    1  UNL1        0.0272
     15 C          63.0064   90.4903   14.8996 C.ar    1  UNL1        0.0029
     16 C          62.8019   89.6254   16.1080 C.ar    1  UNL1        0.0366
     17 C          63.4172   88.2586   16.1648 C.ar    1  UNL1        0.1402
     18 O          63.2127   87.3937   17.3732 O.3     1  UNL1       -0.4240
     19 C          62.3149   86.1947   17.2941 C.3     1  UNL1        0.5086
     20 F          62.9026   84.8148   17.3167 F       1  UNL1       -0.1550
     21 F          60.8293   86.3756   17.1925 F       1  UNL1       -0.1550
     22 C          63.0096   89.9495   11.9146 C.ar    1  UNL1        0.0281
     23 C          61.8002   90.5331   11.2463 C.ar    1  UNL1        0.0021
     24 C          60.7792   89.6294   10.6213 C.ar    1  UNL1        0.0301
     25 C          60.9676   88.1418   10.6645 C.ar    1  UNL1        0.1477
     26 F          59.9466   87.2380   10.0395 F       1  UNL1       -0.2035
     27 C          62.1770   87.5581   11.3329 C.ar    1  UNL1        0.0689
     28 C          63.1980   88.4620   11.9579 C.ar    1  UNL1        0.0103
     29 C          62.3654   86.0706   11.3761 C.1     1  UNL1       -0.0622
     30 C          62.5538   84.5832   11.4194 C.1     1  UNL1       -0.0874
     31 C          62.7422   83.0957   11.4626 C.3     1  UNL1        0.0645
     32 C          63.3038   81.8395   10.8655 C.3     1  UNL1        0.0140
     33 C          62.5069   81.7755   12.1348 C.3     1  UNL1        0.0140
@<TRIPOS>BOND
     1    11    12    1
     2    12    13   ar
     3    13    14   ar
     4     1    14    1
     5     1    22    1
     6    22    23   ar
     7    23    24   ar
     8    24    25   ar
     9    25    26    1
    10    25    27   ar
    11    27    29    1
    12    29    30    3
    13    30    31    1
    14    31    32    1
    15    32    33    1
    16    27    28   ar
    17     1     2    1
    18     2     3    2
    19     3     4    1
    20     3     5    1
    21     5     6    1
    22     5     7   am
    23     7     8    2
    24    14    15   ar
    25    15    16   ar
    26    16    17   ar
    27    17    18    1
    28    18    19    1
    29    19    20    1
    30    19    21    1
    31    17    12   ar
    32     7     1    1
    33    28    22   ar
    34    33    31    1
    35     4     9    1
    36     4    10    1
@<TRIPOS>MOLECULE
*****
 33 36 0 0 0
SMALL
GASTEIGER

@<TRIPOS>ATOM
      1 C          63.9181   90.6400   12.5371 C.3     1  UNL1        0.2669
      2 N          63.7434   91.4898   11.3135 N.2     1  UNL1       -0.0890
      3 C          64.8433   92.5096   11.2966 C.2     1  UNL1        0.3741
      4 N          65.0521   93.5639   10.2502 N.pl3   1  UNL1       -0.2512
      5 N          65.6977   92.2901   12.5098 N.am    1  UNL1       -0.1416
      6 C          66.9108   93.0863   12.8896 C.3     1  UNL1        0.2160
      7 C          65.1258   91.1346   13.2765 C.2     1  UNL1        0.3314
      8 O          65.6668   90.5724   14.5576 O.2     1  UNL1       -0.2520
      9 H          64.4342   93.6288    9.4866 H       1  UNL1        0.2412
     10 H          65.8071   94.1910   10.3271 H       1  UNL1        0.2412
     11 C          64.5028   85.7820   14.2861 C.3     1  UNL1        0.0342
     12 C          64.1290   87.2142   14.5295 C.ar    1  UNL1        0.0121
     13 C          64.2104   88.2110   13.4116 C.ar    1  UNL1       -0.0015
     14 C          63.8367   89.6431   13.6551 C.ar    1  UNL1        0.0272
     15 C          63.3816   90.0785   15.0164 C.ar    1  UNL1        0.0029
     16 C          63.3002   89.0817   16.1343 C.ar    1  UNL1        0.0366
     17 C          63.6739   87.6495   15.8909 C.ar    1  UNL1        0.1402
     18 O          63.5925   86.6527   17.0088 O.3     1  UNL1       -0.4240
     19 C          62.3885   86.6253   17.9030 C.3     1  UNL1        0.5086
     20 F          62.5509   86.7910   19.3850 F       1  UNL1       -0.1550
     21 F          61.0220   86.4321   17.3152 F       1  UNL1       -0.1550
     22 C          62.6933   89.9370   12.0315 C.ar    1  UNL1        0.0281
     23 C          61.3517   90.2455   12.6273 C.ar    1  UNL1        0.0021
     24 C          60.1269   89.5425   12.1216 C.ar    1  UNL1        0.0301
     25 C          60.2437   88.5309   11.0201 C.ar    1  UNL1        0.1477
     26 F          59.0190   87.8279   10.5144 F       1  UNL1       -0.2035
     27 C          61.5853   88.2224   10.4243 C.ar    1  UNL1        0.0689
     28 C          62.8102   88.9255   10.9300 C.ar    1  UNL1        0.0103
     29 C          61.7022   87.2109    9.3228 C.1     1  UNL1       -0.0622
     30 C          61.8190   86.1994    8.2214 C.1     1  UNL1       -0.0874
     31 C          61.9358   85.1880    7.1200 C.3     1  UNL1        0.0645
     32 C          62.7746   84.4414    6.1254 C.3     1  UNL1        0.0140
     33 C          61.2993   84.1826    6.2067 C.3     1  UNL1        0.0140
@<TRIPOS>BOND
     1    11    12    1
     2    12    13   ar
     3    13    14   ar
     4     1    14    1
     5     1    22    1
     6    22    23   ar
     7    23    24   ar
     8    24    25   ar
     9    25    26    1
    10    25    27   ar
    11    27    29    1
    12    29    30    3
    13    30    31    1
    14    31    32    1
    15    32    33    1
    16    27    28   ar
    17     1     2    1
    18     2     3    2
    19     3     4    1
    20     3     5    1
    21     5     6    1
    22     5     7   am
    23     7     8    2
    24    14    15   ar
    25    15    16   ar
    26    16    17   ar
    27    17    18    1
    28    18    19    1
    29    19    20    1
    30    19    21    1
    31    17    12   ar
    32     7     1    1
    33    28    22   ar
    34    33    31    1
    35     4     9    1
    36     4    10    1
@<TRIPOS>MOLECULE
*****
 33 36 0 0 0
SMALL
GASTEIGER

@<TRIPOS>ATOM
      1 C          62.9605   81.9219   12.1295 C.3     1  UNL1        0.2669
      2 N          62.7847   81.1418   10.8604 N.2     1  UNL1       -0.0890
      3 C          62.6644   79.6908   11.2210 C.2     1  UNL1        0.3741
      4 N          62.4758   78.5558   10.2587 N.pl3   1  UNL1       -0.2512
      5 N          62.7659   79.5740   12.7130 N.am    1  UNL1       -0.1416
      6 C          62.6967   78.3018   13.5046 C.3     1  UNL1        0.2160
      7 C          62.9489   80.9530   13.2745 C.2     1  UNL1        0.3314
      8 O          63.0948   81.3017   14.7261 O.2     1  UNL1       -0.2520
      9 H          62.4204   78.7340    9.2920 H       1  UNL1        0.2412
     10 H          62.4073   77.6326   10.5937 H       1  UNL1        0.2412
     11 C          66.0091   85.2776   14.6681 C.3     1  UNL1        0.0342
     12 C          64.6712   84.6273   14.4756 C.ar    1  UNL1        0.0121
     13 C          64.4848   83.5998   13.3988 C.ar    1  UNL1       -0.0015
     14 C          63.1469   82.9494   13.2063 C.ar    1  UNL1        0.0272
     15 C          61.9955   83.3265   14.0906 C.ar    1  UNL1        0.0029
     16 C          62.1819   84.3539   15.1673 C.ar    1  UNL1        0.0366
     17 C          63.5198   85.0043   15.3599 C.ar    1  UNL1        0.1402
     18 O          63.7062   86.0319   16.4367 O.3     1  UNL1       -0.4240
     19 C          63.5929   87.4911   16.1086 C.3     1  UNL1        0.5086
     20 F          63.0043   88.4413   17.1091 F       1  UNL1       -0.1550
     21 F          64.0683   88.0003   14.7802 F       1  UNL1       -0.1550
     22 C          63.0110   83.1056   11.2096 C.ar    1  UNL1        0.0281
     23 C          63.8617   83.0602    9.9750 C.ar    1  UNL1        0.0021
     24 C          63.9123   84.2439    9.0551 C.ar    1  UNL1        0.0301
     25 C          63.1121   85.4731    9.3698 C.ar    1  UNL1        0.1477
     26 F          63.1626   86.6568    8.4499 F       1  UNL1       -0.2035
     27 C          62.2614   85.5185   10.6044 C.ar    1  UNL1        0.0689
     28 C          62.2109   84.3347   11.5243 C.ar    1  UNL1        0.0103
     29 C          61.4612   86.7476   10.9191 C.1     1  UNL1       -0.0622
     30 C          60.6611   87.9766   11.2338 C.1     1  UNL1       -0.0874
     31 C          59.8609   89.2057   11.5485 C.3     1  UNL1        0.0645
     32 C          58.8033   89.8951   12.3585 C.3     1  UNL1        0.0140
     33 C          59.5327   90.6452   11.2837 C.3     1  UNL1        0.0140
@<TRIPOS>BOND
     1    11    12    1
     2    12    13   ar
     3    13    14   ar
     4     1    14    1
     5     1    22    1
     6    22    23   ar
     7    23    24   ar
     8    24    25   ar
     9    25    26    1
    10    25    27   ar
    11    27    29    1
    12    29    30    3
    13    30    31    1
    14    31    32    1
    15    32    33    1
    16    27    28   ar
    17     1     2    1
    18     2     3    2
    19     3     4    1
    20     3     5    1
    21     5     6    1
    22     5     7   am
    23     7     8    2
    24    14    15   ar
    25    15    16   ar
    26    16    17   ar
    27    17    18    1
    28    18    19    1
    29    19    20    1
    30    19    21    1
    31    17    12   ar
    32     7     1    1
    33    28    22   ar
    34    33    31    1
    35     4     9    1
    36     4    10    1
@<TRIPOS>MOLECULE
*****
 33 36 0 0 0
SMALL
GASTEIGER

@<TRIPOS>ATOM
      1 C          62.9385   85.8975   12.5504 C.3     1  UNL1        0.2669
      2 N          63.3965   86.2793   13.9268 N.2     1  UNL1       -0.0890
      3 C          63.4952   85.0269   14.7464 C.2     1  UNL1        0.3741
      4 N          63.9169   84.9446   16.1836 N.pl3   1  UNL1       -0.2512
      5 N          63.0983   83.8711   13.8766 N.am    1  UNL1       -0.1416
      6 C          63.0533   82.4303   14.2911 C.3     1  UNL1        0.2160
      7 C          62.7542   84.4092   12.5193 C.2     1  UNL1        0.3314
      8 O          62.3047   83.6009   11.3384 O.2     1  UNL1       -0.2520
      9 H          64.1601   85.7636   16.6729 H       1  UNL1        0.2412
     10 H          63.9505   84.0717   16.6375 H       1  UNL1        0.2412
     11 C          59.3373   86.7305    8.8983 C.3     1  UNL1        0.0342
     12 C          60.6992   86.2402    9.2918 C.ar    1  UNL1        0.0121
     13 C          61.1379   86.3140   10.7243 C.ar    1  UNL1       -0.0015
     14 C          62.4998   85.8237   11.1178 C.ar    1  UNL1        0.0272
     15 C          63.4230   85.2596   10.0789 C.ar    1  UNL1        0.0029
     16 C          62.9843   85.1858    8.6464 C.ar    1  UNL1        0.0366
     17 C          61.6224   85.6761    8.2529 C.ar    1  UNL1        0.1402
     18 O          61.1838   85.6023    6.8203 O.3     1  UNL1       -0.4240
     19 C          61.6719   84.4878    5.9429 C.3     1  UNL1        0.5086
     20 F          63.0180   84.5835    5.2880 F       1  UNL1       -0.1550
     21 F          60.8139   83.2777    5.7205 F       1  UNL1       -0.1550
     22 C          63.0311   87.3704   12.2820 C.ar    1  UNL1        0.0281
     23 C          62.1989   87.9890   11.1981 C.ar    1  UNL1        0.0021
     24 C          62.2915   89.4619   10.9297 C.ar    1  UNL1        0.0301
     25 C          63.2164   90.3162   11.7452 C.ar    1  UNL1        0.1477
     26 F          63.3090   91.7891   11.4768 F       1  UNL1       -0.2035
     27 C          64.0485   89.6976   12.8291 C.ar    1  UNL1        0.0689
     28 C          63.9559   88.2246   13.0975 C.ar    1  UNL1        0.0103
     29 C          64.9733   90.5518   13.6446 C.1     1  UNL1       -0.0622
     30 C          65.8980   91.4061   14.4601 C.1     1  UNL1       -0.0874
     31 C          66.8228   92.2603   15.2756 C.3     1  UNL1        0.0645
     32 C          67.5537   93.5539   15.4811 C.3     1  UNL1        0.0140
     33 C          67.6937   92.4462   16.4827 C.3     1  UNL1        0.0140
@<TRIPOS>BOND
     1    11    12    1
     2    12    13   ar
     3    13    14   ar
     4     1    14    1
     5     1    22    1
     6    22    23   ar
     7    23    24   ar
     8    24    25   ar
     9    25    26    1
    10    25    27   ar
    11    27    29    1
    12    29    30    3
    13    30    31    1
    14    31    32    1
    15    32    33    1
    16    27    28   ar
    17     1     2    1
    18     2     3    2
    19     3     4    1
    20     3     5    1
    21     5     6    1
    22     5     7   am
    23     7     8    2
    24    14    15   ar
    25    15    16   ar
    26    16    17   ar
    27    17    18    1
    28    18    19    1
    29    19    20    1
    30    19    21    1
    31    17    12   ar
    32     7     1    1
    33    28    22   ar
    34    33    31    1
    35     4     9    1
    36     4    10    1
@<TRIPOS>MOLECULE
*****
 33 36 0 0 0
SMALL
GASTEIGER

@<TRIPOS>ATOM
      1 C          63.0395   86.3054   12.8645 C.3     1  UNL1        0.2669
      2 N          63.7446   86.6080   14.1534 N.2     1  UNL1       -0.0890
      3 C          63.8561   85.3305   14.9316 C.2     1  UNL1        0.3741
      4 N          64.4921   85.1727   16.2809 N.pl3   1  UNL1       -0.2512
      5 N          63.2199   84.2384   14.1237 N.am    1  UNL1       -0.1416
      6 C          63.1080   82.7970   14.5232 C.3     1  UNL1        0.2160
      7 C          62.7152   84.8410   12.8461 C.2     1  UNL1        0.3314
      8 O          62.0100   84.1079   11.7437 O.2     1  UNL1       -0.2520
      9 H          64.8852   85.9533   16.7342 H       1  UNL1        0.2412
     10 H          64.5165   84.2885   16.7132 H       1  UNL1        0.2412
     11 C          63.1360   85.1895    7.7905 C.3     1  UNL1        0.0342
     12 C          62.4213   85.7513    8.9836 C.ar    1  UNL1        0.0121
     13 C          63.0877   85.7475   10.3274 C.ar    1  UNL1       -0.0015
     14 C          62.3730   86.3092   11.5206 C.ar    1  UNL1        0.0272
     15 C          60.9919   86.8748   11.3700 C.ar    1  UNL1        0.0029
     16 C          60.3255   86.8786   10.0262 C.ar    1  UNL1        0.0366
     17 C          61.0402   86.3168    8.8330 C.ar    1  UNL1        0.1402
     18 O          60.3738   86.3206    7.4892 O.3     1  UNL1       -0.4240
     19 C          59.1033   87.0913    7.2842 C.3     1  UNL1        0.5086
     20 F          59.1391   88.4307    6.6099 F       1  UNL1       -0.1550
     21 F          57.7971   86.5226    7.7536 F       1  UNL1       -0.1550
     22 C          63.2245   87.7706   12.6019 C.ar    1  UNL1        0.0281
     23 C          62.4050   88.4528   11.5469 C.ar    1  UNL1        0.0021
     24 C          62.5900   89.9180   11.2843 C.ar    1  UNL1        0.0301
     25 C          63.5945   90.7011   12.0768 C.ar    1  UNL1        0.1477
     26 F          63.7794   92.1663   11.8142 F       1  UNL1       -0.2035
     27 C          64.4139   90.0189   13.1319 C.ar    1  UNL1        0.0689
     28 C          64.2289   88.5536   13.3944 C.ar    1  UNL1        0.0103
     29 C          65.4183   90.8019   13.9243 C.1     1  UNL1       -0.0622
     30 C          66.4227   91.5848   14.7169 C.1     1  UNL1       -0.0874
     31 C          67.4271   92.3678   15.5094 C.3     1  UNL1        0.0645
     32 C          68.0177   93.6845   15.9187 C.3     1  UNL1        0.0140
     33 C          68.5762   92.4073   16.4727 C.3     1  UNL1        0.0140
@<TRIPOS>BOND
     1    11    12    1
     2    12    13   ar
     3    13    14   ar
     4     1    14    1
     5     1    22    1
     6    22    23   ar
     7    23    24   ar
     8    24    25   ar
     9    25    26    1
    10    25    27   ar
    11    27    29    1
    12    29    30    3
    13    30    31    1
    14    31    32    1
    15    32    33    1
    16    27    28   ar
    17     1     2    1
    18     2     3    2
    19     3     4    1
    20     3     5    1
    21     5     6    1
    22     5     7   am
    23     7     8    2
    24    14    15   ar
    25    15    16   ar
    26    16    17   ar
    27    17    18    1
    28    18    19    1
    29    19    20    1
    30    19    21    1
    31    17    12   ar
    32     7     1    1
    33    28    22   ar
    34    33    31    1
    35     4     9    1
    36     4    10    1
@<TRIPOS>MOLECULE
*****
 33 36 0 0 0
SMALL
GASTEIGER

@<TRIPOS>ATOM
      1 C          62.6162   85.8481   11.6474 C.3     1  UNL1        0.2669
      2 N          62.9115   86.2922   13.0494 N.2     1  UNL1       -0.0890
      3 C          63.5176   85.1337   13.7846 C.2     1  UNL1        0.3741
      4 N          63.9658   85.1350   15.2161 N.pl3   1  UNL1       -0.2512
      5 N          63.5969   83.9736   12.8370 N.am    1  UNL1       -0.1416
      6 C          64.1382   82.6113   13.1545 C.3     1  UNL1        0.2160
      7 C          63.0397   84.4152   11.5161 C.2     1  UNL1        0.3314
      8 O          62.9261   83.5718   10.2809 O.2     1  UNL1       -0.2520
      9 H          63.8722   85.9500   15.7605 H       1  UNL1        0.2412
     10 H          64.3536   84.3210   15.6112 H       1  UNL1        0.2412
     11 C          59.0715   86.3798    7.8854 C.3     1  UNL1        0.0342
     12 C          60.4424   85.9628    8.3291 C.ar    1  UNL1        0.0121
     13 C          60.8438   86.1139    9.7664 C.ar    1  UNL1       -0.0015
     14 C          62.2147   85.6970   10.2100 C.ar    1  UNL1        0.0272
     15 C          63.1841   85.1288    9.2163 C.ar    1  UNL1        0.0029
     16 C          62.7826   84.9777    7.7790 C.ar    1  UNL1        0.0366
     17 C          61.4118   85.3947    7.3354 C.ar    1  UNL1        0.1402
     18 O          61.0103   85.2435    5.8980 O.3     1  UNL1       -0.4240
     19 C          61.8729   84.4555    4.9573 C.3     1  UNL1        0.5086
     20 F          63.2681   84.0772    5.3576 F       1  UNL1       -0.1550
     21 F          61.3402   84.0458    3.6162 F       1  UNL1       -0.1550
     22 C          62.1087   87.2495   11.4782 C.ar    1  UNL1        0.0281
     23 C          60.6331   87.5187   11.4848 C.ar    1  UNL1        0.0021
     24 C          60.1256   88.9200   11.3155 C.ar    1  UNL1        0.0301
     25 C          61.0938   90.0523   11.1398 C.ar    1  UNL1        0.1477
     26 F          60.5863   91.4536   10.9705 F       1  UNL1       -0.2035
     27 C          62.5694   89.7830   11.1332 C.ar    1  UNL1        0.0689
     28 C          63.0769   88.3816   11.3024 C.ar    1  UNL1        0.0103
     29 C          63.5376   90.9152   10.9574 C.1     1  UNL1       -0.0622
     30 C          64.5057   92.0473   10.7817 C.1     1  UNL1       -0.0874
     31 C          65.4738   93.1794   10.6059 C.3     1  UNL1        0.0645
     32 C          65.8640   94.6059   10.8568 C.3     1  UNL1        0.0140
     33 C          66.7607   93.7139   10.0505 C.3     1  UNL1        0.0140
@<TRIPOS>BOND
     1    11    12    1
     2    12    13   ar
     3    13    14   ar
     4     1    14    1
     5     1    22    1
     6    22    23   ar
     7    23    24   ar
     8    24    25   ar
     9    25    26    1
    10    25    27   ar
    11    27    29    1
    12    29    30    3
    13    30    31    1
    14    31    32    1
    15    32    33    1
    16    27    28   ar
    17     1     2    1
    18     2     3    2
    19     3     4    1
    20     3     5    1
    21     5     6    1
    22     5     7   am
    23     7     8    2
    24    14    15   ar
    25    15    16   ar
    26    16    17   ar
    27    17    18    1
    28    18    19    1
    29    19    20    1
    30    19    21    1
    31    17    12   ar
    32     7     1    1
    33    28    22   ar
    34    33    31    1
    35     4     9    1
    36     4    10    1
