@<TRIPOS>MOLECULE
*****
 36 40 0 0 0
SMALL
GASTEIGER

@<TRIPOS>ATOM
      1 C          63.7710   87.5412   14.7222 C.ar    1  UNL1        0.1353
      2 C          64.5278   88.6983   14.1406 C.ar    1  UNL1        0.0346
      3 C          64.5964   89.9994   14.8840 C.ar    1  UNL1        0.0058
      4 C          63.9082   90.1432   16.2089 C.ar    1  UNL1        0.0208
      5 C          63.1514   88.9861   16.7905 C.ar    1  UNL1        0.1003
      6 N          63.0828   87.6850   16.0472 N.ar    1  UNL1       -0.2290
      7 C          61.2354   80.1893   14.2027 C.3     1  UNL1        0.0339
      8 C          62.0120   81.3389   13.6324 C.3     1  UNL1        0.1351
      9 C          62.0806   82.6399   14.3759 C.3     1  UNL1        0.1244
     10 N          62.8572   83.7895   13.8056 N.am    1  UNL1       -0.2590
     11 C          62.9258   85.0906   14.5490 C.2     1  UNL1        0.3089
     12 O          62.2177   85.2420   15.8627 O.2     1  UNL1       -0.2522
     13 N          63.7025   86.2402   13.9787 N.am    1  UNL1       -0.2535
     14 C          63.5653   83.6381   12.4919 C.3     1  UNL1        0.1244
     15 C          63.4968   82.3371   11.7485 C.3     1  UNL1        0.1351
     16 C          64.2049   82.1857   10.4349 C.3     1  UNL1        0.0339
     17 O          62.7201   81.1875   12.3188 O.3     1  UNL1       -0.3552
     18 H          64.1672   86.1408   13.1166 H       1  UNL1        0.1578
     19 C          65.3532   91.1565   14.3024 C.ar    1  UNL1        0.0188
     20 C          65.1646   91.7334   12.9306 C.ar    1  UNL1        0.0758
     21 N          66.1263   92.8733   12.7709 N.ar    1  UNL1       -0.3267
     22 C          66.9094   93.0010   14.0439 C.ar    1  UNL1        0.0793
     23 C          67.9958   93.9463   14.4635 C.ar    1  UNL1        0.1160
     24 N          68.6044   93.8306   15.8295 N.ar    1  UNL1       -0.2408
     25 C          68.1265   92.7696   16.7760 C.ar    1  UNL1        0.0990
     26 C          67.0402   91.8242   16.3565 C.ar    1  UNL1        0.0222
     27 C          66.4316   91.9399   14.9904 C.ar    1  UNL1        0.0203
     28 C          66.2784   93.7344   11.5521 C.3     1  UNL1        0.0857
     29 C          66.8924   93.1687   10.3059 C.3     1  UNL1        0.0250
     30 C          67.0445   94.0298    9.0871 C.3     1  UNL1        0.0288
     31 C          66.5825   95.4566    9.1145 C.3     1  UNL1        0.0885
     32 C          66.2997   96.8557    8.6535 C.3     1  UNL1        0.0293
     33 O          67.0983   95.3768    7.7082 O.3     1  UNL1       -0.3867
     34 C          65.9685   96.0223   10.3607 C.3     1  UNL1        0.0288
     35 C          65.8165   95.1612   11.5795 C.3     1  UNL1        0.0250
     36 H          67.4400   94.4848    7.5393 H       1  UNL1        0.2102
@<TRIPOS>BOND
     1     8     7    1
     2     8     9    1
     3     9    10    1
     4    10    11   am
     5    11    12    2
     6    11    13   am
     7    13     1    1
     8     1     2   ar
     9     2     3   ar
    10     3    19    1
    11    19    20   ar
    12    20    21   ar
    13    28    21    1
    14    28    29    1
    15    29    30    1
    16    30    31    1
    17    31    32    1
    18    31    33    1
    19    31    34    1
    20    34    35    1
    21    21    22   ar
    22    22    23   ar
    23    23    24   ar
    24    24    25   ar
    25    25    26   ar
    26    26    27   ar
    27     3     4   ar
    28     4     5   ar
    29     5     6   ar
    30    10    14    1
    31    14    15    1
    32    15    16    1
    33    15    17    1
    34    17     8    1
    35     6     1   ar
    36    27    19   ar
    37    35    28    1
    38    27    22   ar
    39    13    18    1
    40    33    36    1
@<TRIPOS>MOLECULE
*****
 36 40 0 0 0
SMALL
GASTEIGER

@<TRIPOS>ATOM
      1 C          61.6029   87.0717   11.3740 C.ar    1  UNL1        0.1353
      2 C          62.6648   88.1192   11.5325 C.ar    1  UNL1        0.0346
      3 C          62.2832   89.5676   11.6151 C.ar    1  UNL1        0.0058
      4 C          60.8399   89.9683   11.5391 C.ar    1  UNL1        0.0208
      5 C          59.7779   88.9209   11.3806 C.ar    1  UNL1        0.1003
      6 N          60.1594   87.4726   11.2980 N.ar    1  UNL1       -0.2290
      7 C          63.9975   80.5143   14.8401 C.3     1  UNL1        0.0339
      8 C          63.5809   81.2518   13.6022 C.3     1  UNL1        0.1351
      9 C          63.1993   82.7000   13.6847 C.3     1  UNL1        0.1244
     10 N          62.7827   83.4376   12.4468 N.am    1  UNL1       -0.2590
     11 C          62.4011   84.8859   12.5293 C.2     1  UNL1        0.3089
     12 O          62.4361   85.5967   13.8498 O.2     1  UNL1       -0.2522
     13 N          61.9845   85.6235   11.2914 N.am    1  UNL1       -0.2535
     14 C          62.7477   82.7268   11.1264 C.3     1  UNL1        0.1244
     15 C          63.1293   81.2785   11.0438 C.3     1  UNL1        0.1351
     16 C          63.0943   80.5678    9.7233 C.3     1  UNL1        0.0339
     17 O          63.5459   80.5410   12.2817 O.3     1  UNL1       -0.3552
     18 H          61.9615   85.1570   10.4247 H       1  UNL1        0.1578
     19 C          63.3452   90.6150   11.7737 C.ar    1  UNL1        0.0188
     20 C          63.9307   91.4505   10.6741 C.ar    1  UNL1        0.0758
     21 N          64.9554   92.3627   11.2806 N.ar    1  UNL1       -0.3267
     22 C          65.0032   92.0910   12.7550 C.ar    1  UNL1        0.0793
     23 C          65.8243   92.6877   13.8594 C.ar    1  UNL1        0.1160
     24 N          65.6502   92.2041   15.2686 N.ar    1  UNL1       -0.2408
     25 C          64.6550   91.1240   15.5734 C.ar    1  UNL1        0.0990
     26 C          63.8339   90.5274   14.4690 C.ar    1  UNL1        0.0222
     27 C          64.0080   91.0109   13.0598 C.ar    1  UNL1        0.0203
     28 C          65.7865   93.3698   10.5423 C.3     1  UNL1        0.0857
     29 C          67.0214   92.9322    9.8116 C.3     1  UNL1        0.0250
     30 C          67.8524   93.9393    9.0733 C.3     1  UNL1        0.0288
     31 C          67.4487   95.3839    9.0656 C.3     1  UNL1        0.0885
     32 C          67.4773   96.8539    8.7683 C.3     1  UNL1        0.0293
     33 O          68.6935   95.4569    8.2317 O.3     1  UNL1       -0.3867
     34 C          66.2139   95.8214    9.7962 C.3     1  UNL1        0.0288
     35 C          65.3828   94.8143   10.5345 C.3     1  UNL1        0.0250
     36 H          69.0779   94.5704    8.1464 H       1  UNL1        0.2102
@<TRIPOS>BOND
     1     8     7    1
     2     8     9    1
     3     9    10    1
     4    10    11   am
     5    11    12    2
     6    11    13   am
     7    13     1    1
     8     1     2   ar
     9     2     3   ar
    10     3    19    1
    11    19    20   ar
    12    20    21   ar
    13    28    21    1
    14    28    29    1
    15    29    30    1
    16    30    31    1
    17    31    32    1
    18    31    33    1
    19    31    34    1
    20    34    35    1
    21    21    22   ar
    22    22    23   ar
    23    23    24   ar
    24    24    25   ar
    25    25    26   ar
    26    26    27   ar
    27     3     4   ar
    28     4     5   ar
    29     5     6   ar
    30    10    14    1
    31    14    15    1
    32    15    16    1
    33    15    17    1
    34    17     8    1
    35     6     1   ar
    36    27    19   ar
    37    35    28    1
    38    27    22   ar
    39    13    18    1
    40    33    36    1
@<TRIPOS>MOLECULE
*****
 36 40 0 0 0
SMALL
GASTEIGER

@<TRIPOS>ATOM
      1 C          62.5596   89.6930   11.1435 C.ar    1  UNL1        0.1353
      2 C          62.9924   88.3276   11.5889 C.ar    1  UNL1        0.0346
      3 C          62.0834   87.1509   11.3908 C.ar    1  UNL1        0.0058
      4 C          60.7417   87.3397   10.7474 C.ar    1  UNL1        0.0208
      5 C          60.3089   88.7051   10.3021 C.ar    1  UNL1        0.1003
      6 N          61.2178   89.8818   10.5001 N.ar    1  UNL1       -0.2290
      7 C          67.6736   93.6079   15.5333 C.3     1  UNL1        0.0339
      8 C          66.8780   93.4796   14.2682 C.3     1  UNL1        0.1351
      9 C          65.9690   92.3030   14.0701 C.3     1  UNL1        0.1244
     10 N          65.1733   92.1746   12.8049 N.am    1  UNL1       -0.2590
     11 C          64.2643   90.9980   12.6068 C.2     1  UNL1        0.3089
     12 O          64.1509   89.9497   13.6737 O.2     1  UNL1       -0.2522
     13 N          63.4686   90.8696   11.3417 N.am    1  UNL1       -0.2535
     14 C          65.2867   93.2229   11.7380 C.3     1  UNL1        0.1244
     15 C          66.1957   94.3995   11.9361 C.3     1  UNL1        0.1351
     16 C          66.3091   95.4477   10.8692 C.3     1  UNL1        0.0339
     17 O          66.9914   94.5278   13.2012 O.3     1  UNL1       -0.3552
     18 H          63.5430   91.5576   10.6414 H       1  UNL1        0.1578
     19 C          62.5163   85.7855   11.8362 C.ar    1  UNL1        0.0188
     20 C          62.2736   84.5004   11.1016 C.ar    1  UNL1        0.0758
     21 N          62.8751   83.3862   11.9058 N.ar    1  UNL1       -0.3267
     22 C          63.4895   83.9827   13.1374 C.ar    1  UNL1        0.0793
     23 C          64.2223   83.3671   14.2924 C.ar    1  UNL1        0.1160
     24 N          64.7332   84.2344   15.4044 N.ar    1  UNL1       -0.2408
     25 C          64.5114   85.7173   15.3614 C.ar    1  UNL1        0.0990
     26 C          63.7787   86.3329   14.2064 C.ar    1  UNL1        0.0222
     27 C          63.2677   85.4655   13.0943 C.ar    1  UNL1        0.0203
     28 C          62.8642   81.9309   11.5422 C.3     1  UNL1        0.0857
     29 C          63.2171   81.5034   10.1484 C.3     1  UNL1        0.0250
     30 C          63.2062   80.0482    9.7848 C.3     1  UNL1        0.0288
     31 C          62.8423   79.0204   10.8151 C.3     1  UNL1        0.0885
     32 C          62.5680   77.6829   11.4362 C.3     1  UNL1        0.0293
     33 O          63.0999   78.1284    9.6369 O.3     1  UNL1       -0.3867
     34 C          62.4895   79.4480   12.2089 C.3     1  UNL1        0.0288
     35 C          62.5004   80.9032   12.5724 C.3     1  UNL1        0.0250
     36 H          63.3530   78.6683    8.8718 H       1  UNL1        0.2102
@<TRIPOS>BOND
     1     8     7    1
     2     8     9    1
     3     9    10    1
     4    10    11   am
     5    11    12    2
     6    11    13   am
     7    13     1    1
     8     1     2   ar
     9     2     3   ar
    10     3    19    1
    11    19    20   ar
    12    20    21   ar
    13    28    21    1
    14    28    29    1
    15    29    30    1
    16    30    31    1
    17    31    32    1
    18    31    33    1
    19    31    34    1
    20    34    35    1
    21    21    22   ar
    22    22    23   ar
    23    23    24   ar
    24    24    25   ar
    25    25    26   ar
    26    26    27   ar
    27     3     4   ar
    28     4     5   ar
    29     5     6   ar
    30    10    14    1
    31    14    15    1
    32    15    16    1
    33    15    17    1
    34    17     8    1
    35     6     1   ar
    36    27    19   ar
    37    35    28    1
    38    27    22   ar
    39    13    18    1
    40    33    36    1
@<TRIPOS>MOLECULE
*****
 36 40 0 0 0
SMALL
GASTEIGER

@<TRIPOS>ATOM
      1 C          61.7817   87.0521   11.9236 C.ar    1  UNL1        0.1353
      2 C          62.8134   88.1334   12.0521 C.ar    1  UNL1        0.0346
      3 C          62.4607   89.5510   11.7112 C.ar    1  UNL1        0.0058
      4 C          61.0763   89.8872   11.2418 C.ar    1  UNL1        0.0208
      5 C          60.0446   88.8059   11.1133 C.ar    1  UNL1        0.1003
      6 N          60.3973   87.3884   11.4542 N.ar    1  UNL1       -0.2290
      7 C          63.1879   79.7206    9.6831 C.3     1  UNL1        0.0339
      8 C          63.0719   80.7469   10.7709 C.3     1  UNL1        0.1351
      9 C          62.7192   82.1644   10.4300 C.3     1  UNL1        0.1244
     10 N          62.6032   83.1907   11.5177 N.am    1  UNL1       -0.2590
     11 C          62.2504   84.6083   11.1768 C.2     1  UNL1        0.3089
     12 O          62.0136   84.9995    9.7482 O.2     1  UNL1       -0.2522
     13 N          62.1345   85.6347   12.2646 N.am    1  UNL1       -0.2535
     14 C          62.8401   82.7996   12.9463 C.3     1  UNL1        0.1244
     15 C          63.1929   81.3821   13.2872 C.3     1  UNL1        0.1351
     16 C          63.4298   80.9909   14.7158 C.3     1  UNL1        0.0339
     17 O          63.3088   80.3558   12.1995 O.3     1  UNL1       -0.3552
     18 H          62.2900   85.3780   13.2022 H       1  UNL1        0.1578
     19 C          63.4924   90.6322   11.8397 C.ar    1  UNL1        0.0188
     20 C          64.0666   91.4412   10.7146 C.ar    1  UNL1        0.0758
     21 N          65.0601   92.4032   11.2954 N.ar    1  UNL1       -0.3267
     22 C          65.0999   92.1889   12.7795 C.ar    1  UNL1        0.0793
     23 C          65.8932   92.8490   13.8680 C.ar    1  UNL1        0.1160
     24 N          65.7175   92.4146   15.2929 N.ar    1  UNL1       -0.2408
     25 C          64.7486   91.3200   15.6293 C.ar    1  UNL1        0.0990
     26 C          63.9553   90.6599   14.5408 C.ar    1  UNL1        0.0222
     27 C          64.1310   91.0944   13.1159 C.ar    1  UNL1        0.0203
     28 C          65.8714   93.4040   10.5271 C.3     1  UNL1        0.0857
     29 C          67.1489   92.9828    9.8632 C.3     1  UNL1        0.0250
     30 C          67.9603   93.9835    9.0949 C.3     1  UNL1        0.0288
     31 C          67.4941   95.4054    8.9904 C.3     1  UNL1        0.0885
     32 C          67.4685   96.8560    8.6094 C.3     1  UNL1        0.0293
     33 O          68.7627   95.4880    8.1943 O.3     1  UNL1       -0.3867
     34 C          66.2166   95.8265    9.6543 C.3     1  UNL1        0.0288
     35 C          65.4053   94.8258   10.4226 C.3     1  UNL1        0.0250
     36 H          69.1884   94.6167    8.1729 H       1  UNL1        0.2102
@<TRIPOS>BOND
     1     8     7    1
     2     8     9    1
     3     9    10    1
     4    10    11   am
     5    11    12    2
     6    11    13   am
     7    13     1    1
     8     1     2   ar
     9     2     3   ar
    10     3    19    1
    11    19    20   ar
    12    20    21   ar
    13    28    21    1
    14    28    29    1
    15    29    30    1
    16    30    31    1
    17    31    32    1
    18    31    33    1
    19    31    34    1
    20    34    35    1
    21    21    22   ar
    22    22    23   ar
    23    23    24   ar
    24    24    25   ar
    25    25    26   ar
    26    26    27   ar
    27     3     4   ar
    28     4     5   ar
    29     5     6   ar
    30    10    14    1
    31    14    15    1
    32    15    16    1
    33    15    17    1
    34    17     8    1
    35     6     1   ar
    36    27    19   ar
    37    35    28    1
    38    27    22   ar
    39    13    18    1
    40    33    36    1
@<TRIPOS>MOLECULE
*****
 36 40 0 0 0
SMALL
GASTEIGER

@<TRIPOS>ATOM
      1 C          63.7479   87.8135   15.2930 C.ar    1  UNL1        0.1353
      2 C          64.6119   88.8381   14.6195 C.ar    1  UNL1        0.0346
      3 C          64.5567   90.2714   15.0587 C.ar    1  UNL1        0.0058
      4 C          63.6375   90.6799   16.1713 C.ar    1  UNL1        0.0208
      5 C          62.7735   89.6553   16.8448 C.ar    1  UNL1        0.1003
      6 N          62.8287   88.2221   16.4057 N.ar    1  UNL1       -0.2290
      7 C          63.1256   82.4467    9.6752 C.3     1  UNL1        0.0339
      8 C          63.3883   82.8025   11.1086 C.3     1  UNL1        0.1351
      9 C          63.3330   84.2356   11.5478 C.3     1  UNL1        0.1244
     10 N          63.5957   84.5914   12.9811 N.am    1  UNL1       -0.2590
     11 C          63.5405   86.0246   13.4204 C.2     1  UNL1        0.3089
     12 O          63.2225   87.1020   12.4264 O.2     1  UNL1       -0.2522
     13 N          63.8032   86.3804   14.8538 N.am    1  UNL1       -0.2535
     14 C          63.9137   83.5140   13.9751 C.3     1  UNL1        0.1244
     15 C          63.9690   82.0808   13.5359 C.3     1  UNL1        0.1351
     16 C          64.2870   81.0034   14.5299 C.3     1  UNL1        0.0339
     17 O          63.7063   81.7251   12.1026 O.3     1  UNL1       -0.3552
     18 H          64.0119   85.6732   15.5062 H       1  UNL1        0.1578
     19 C          65.4207   91.2961   14.3851 C.ar    1  UNL1        0.0188
     20 C          65.1607   91.9284   13.0501 C.ar    1  UNL1        0.0758
     21 N          66.2758   92.8914   12.7683 N.ar    1  UNL1       -0.3267
     22 C          67.2249   92.8541   13.9292 C.ar    1  UNL1        0.0793
     23 C          68.5021   93.5906   14.2055 C.ar    1  UNL1        0.1160
     24 N          69.2508   93.3412   15.4811 N.ar    1  UNL1       -0.2408
     25 C          68.7223   92.3552   16.4804 C.ar    1  UNL1        0.0990
     26 C          67.4452   91.6187   16.2041 C.ar    1  UNL1        0.0222
     27 C          66.6965   91.8682   14.9285 C.ar    1  UNL1        0.0203
     28 C          66.4169   93.7422   11.5410 C.3     1  UNL1        0.0857
     29 C          66.0333   95.1918   11.5851 C.3     1  UNL1        0.0250
     30 C          66.1744   96.0426   10.3579 C.3     1  UNL1        0.0288
     31 C          66.6992   95.4440    9.0866 C.3     1  UNL1        0.0885
     32 C          67.1444   95.3358    7.6582 C.3     1  UNL1        0.0293
     33 O          66.4702   96.8559    8.6346 O.3     1  UNL1       -0.3867
     34 C          67.0828   93.9946    9.0425 C.3     1  UNL1        0.0288
     35 C          66.9416   93.1437   10.2697 C.3     1  UNL1        0.0250
     36 H          66.1206   97.3790    9.3729 H       1  UNL1        0.2102
@<TRIPOS>BOND
     1     8     7    1
     2     8     9    1
     3     9    10    1
     4    10    11   am
     5    11    12    2
     6    11    13   am
     7    13     1    1
     8     1     2   ar
     9     2     3   ar
    10     3    19    1
    11    19    20   ar
    12    20    21   ar
    13    28    21    1
    14    28    29    1
    15    29    30    1
    16    30    31    1
    17    31    32    1
    18    31    33    1
    19    31    34    1
    20    34    35    1
    21    21    22   ar
    22    22    23   ar
    23    23    24   ar
    24    24    25   ar
    25    25    26   ar
    26    26    27   ar
    27     3     4   ar
    28     4     5   ar
    29     5     6   ar
    30    10    14    1
    31    14    15    1
    32    15    16    1
    33    15    17    1
    34    17     8    1
    35     6     1   ar
    36    27    19   ar
    37    35    28    1
    38    27    22   ar
    39    13    18    1
    40    33    36    1
@<TRIPOS>MOLECULE
*****
 36 40 0 0 0
SMALL
GASTEIGER

@<TRIPOS>ATOM
      1 C          60.1318   91.1584    4.7655 C.ar    1  UNL1        0.1353
      2 C          60.6596   90.3730    5.9295 C.ar    1  UNL1        0.0346
      3 C          59.7074   89.7299    6.8938 C.ar    1  UNL1        0.0058
      4 C          58.2277   89.8721    6.6942 C.ar    1  UNL1        0.0208
      5 C          57.6999   90.6574    5.5303 C.ar    1  UNL1        0.1003
      6 N          58.6519   91.3006    4.5660 N.ar    1  UNL1       -0.2290
      7 C          61.4573   96.0044   -1.1933 C.3     1  UNL1        0.0339
      8 C          61.9675   95.0322   -0.1714 C.3     1  UNL1        0.1351
      9 C          61.0154   94.3891    0.7929 C.3     1  UNL1        0.1244
     10 N          61.5257   93.4169    1.8149 N.am    1  UNL1       -0.2590
     11 C          60.5736   92.7737    2.7793 C.2     1  UNL1        0.3089
     12 O          59.1113   93.1027    2.7216 O.2     1  UNL1       -0.2522
     13 N          61.0839   91.8015    3.8013 N.am    1  UNL1       -0.2535
     14 C          62.9880   93.0878    1.8726 C.3     1  UNL1        0.1244
     15 C          63.9401   93.7309    0.9083 C.3     1  UNL1        0.1351
     16 C          65.4024   93.4019    0.9660 C.3     1  UNL1        0.0339
     17 O          63.4299   94.7031   -0.1137 O.3     1  UNL1       -0.3552
     18 H          62.0436   91.5855    3.8391 H       1  UNL1        0.1578
     19 C          60.2352   88.9445    8.0578 C.ar    1  UNL1        0.0188
     20 C          60.9777   87.6435    7.9795 C.ar    1  UNL1        0.0758
     21 N          61.3145   87.2173    9.3777 N.ar    1  UNL1       -0.3267
     22 C          60.7803   88.2549   10.3200 C.ar    1  UNL1        0.0793
     23 C          60.8150   88.3655   11.8155 C.ar    1  UNL1        0.1160
     24 N          60.1826   89.5437   12.4952 N.ar    1  UNL1       -0.2408
     25 C          59.5156   90.6112   11.6794 C.ar    1  UNL1        0.0990
     26 C          59.4809   90.5005   10.1840 C.ar    1  UNL1        0.0222
     27 C          60.1132   89.3224    9.5043 C.ar    1  UNL1        0.0203
     28 C          62.0556   85.9721    9.7654 C.3     1  UNL1        0.0857
     29 C          62.9763   85.3106    8.7831 C.3     1  UNL1        0.0250
     30 C          63.7173   84.0654    9.1709 C.3     1  UNL1        0.0288
     31 C          63.5377   83.4817   10.5409 C.3     1  UNL1        0.0885
     32 C          63.6970   82.5566   11.7109 C.3     1  UNL1        0.0293
     33 O          64.5137   82.4990    9.9650 O.3     1  UNL1       -0.3867
     34 C          62.6170   84.1431   11.5232 C.3     1  UNL1        0.0288
     35 C          61.8760   85.3883   11.1354 C.3     1  UNL1        0.0250
     36 H          64.7304   82.7542    9.0546 H       1  UNL1        0.2102
@<TRIPOS>BOND
     1     8     7    1
     2     8     9    1
     3     9    10    1
     4    10    11   am
     5    11    12    2
     6    11    13   am
     7    13     1    1
     8     1     2   ar
     9     2     3   ar
    10     3    19    1
    11    19    20   ar
    12    20    21   ar
    13    28    21    1
    14    28    29    1
    15    29    30    1
    16    30    31    1
    17    31    32    1
    18    31    33    1
    19    31    34    1
    20    34    35    1
    21    21    22   ar
    22    22    23   ar
    23    23    24   ar
    24    24    25   ar
    25    25    26   ar
    26    26    27   ar
    27     3     4   ar
    28     4     5   ar
    29     5     6   ar
    30    10    14    1
    31    14    15    1
    32    15    16    1
    33    15    17    1
    34    17     8    1
    35     6     1   ar
    36    27    19   ar
    37    35    28    1
    38    27    22   ar
    39    13    18    1
    40    33    36    1
