@<TRIPOS>MOLECULE
*****
 41 45 0 0 0
SMALL
GASTEIGER

@<TRIPOS>ATOM
      1 C          64.0409   87.7314   14.3966 C.ar    1  UNL1        0.1486
      2 N          64.4913   86.4314   14.9941 N.ar    1  UNL1       -0.2266
      3 C          64.1984   85.3411   14.0064 C.ar    1  UNL1        0.1010
      4 C          64.4251   83.8590   14.0509 C.ar    1  UNL1        0.0526
      5 C          64.0203   83.0032   12.8874 C.ar    1  UNL1        0.1690
      6 F          64.2470   81.5210   12.9319 F       1  UNL1       -0.2017
      7 C          63.3889   83.6294   11.6795 C.ar    1  UNL1        0.1689
      8 F          62.9841   82.7735   10.5160 F       1  UNL1       -0.2017
      9 C          63.1622   85.1115   11.6350 C.ar    1  UNL1        0.0507
     10 C          63.5670   85.9673   12.7984 C.ar    1  UNL1        0.0816
     11 N          63.4697   87.4446   13.0396 N.ar    1  UNL1       -0.3046
     12 C          64.3494   91.7809   16.3348 C.ar    1  UNL1        0.2275
     13 C          65.3001   91.3995   15.2391 C.ar    1  UNL1        0.0580
     14 C          65.1973   90.0496   14.5930 C.ar    1  UNL1        0.0125
     15 C          64.1438   89.0813   15.0427 C.ar    1  UNL1        0.0875
     16 C          63.1930   89.4627   16.1383 C.ar    1  UNL1        0.2303
     17 N          63.2958   90.8126   16.7844 N.ar    1  UNL1       -0.1766
     18 C          63.2190   93.8114   17.4963 C.3     1  UNL1        0.2542
     19 O          64.4522   93.1308   16.9808 O.3     1  UNL1       -0.4561
     20 O          62.1394   88.4943   16.5880 O.3     1  UNL1       -0.4560
     21 C          62.4905   87.3961   17.5475 C.3     1  UNL1        0.2542
     22 C          62.9009   88.4573   12.0904 C.3     1  UNL1        0.1628
     23 C          61.8594   88.0474   11.0919 C.3     1  UNL1        0.0297
     24 C          62.2710   87.4134    9.7962 C.3     1  UNL1        0.0024
     25 C          61.2296   87.0034    8.7976 C.3     1  UNL1        0.0001
     26 C          59.7764   87.2275    9.0946 C.3     1  UNL1        0.0000
     27 C          59.3648   87.8615   10.3902 C.3     1  UNL1        0.0001
     28 C          60.4063   88.2714   11.3888 C.3     1  UNL1        0.0024
     29 C          63.3736   89.8801   12.1398 C.2     1  UNL1        0.2431
     30 O          62.9527   91.0916   12.9176 O.2     1  UNL1       -0.2731
     31 N          64.5122   90.3227   11.2694 N.am    1  UNL1       -0.3044
     32 H          64.9493   89.6795   10.6657 H       1  UNL1        0.1494
     33 C          64.9849   91.7454   11.3188 C.3     1  UNL1        0.0716
     34 C          64.5652   92.7126   10.2519 C.3     1  UNL1        0.0199
     35 C          65.0379   94.1354   10.3013 C.3     1  UNL1        0.0072
     36 C          65.9302   94.5909   11.4176 C.3     1  UNL1        0.0367
     37 C          66.3499   93.6237   12.4845 C.3     1  UNL1        0.0072
     38 C          65.8773   92.2009   12.4351 C.3     1  UNL1        0.0199
     39 C          66.4029   96.0136   11.4670 C.2     1  UNL1        0.0500
     40 O          67.1567   96.5943   10.3075 O.co2   1  UNL1       -0.5492
     41 O          66.1218   96.8557   12.6761 O.co2   1  UNL1       -0.5492
@<TRIPOS>UNITY_ATOM_ATTR
40 1
charge -1
@<TRIPOS>BOND
     1    18    19    1
     2    19    12    1
     3    12    13   ar
     4    13    14   ar
     5    14    15   ar
     6    15     1    1
     7     1     2   ar
     8     2     3   ar
     9     3     4   ar
    10     4     5   ar
    11     5     6    1
    12     5     7   ar
    13     7     8    1
    14     7     9   ar
    15     9    10   ar
    16    10    11   ar
    17    11    22    1
    18    22    29    1
    19    29    30    2
    20    29    31   am
    21    33    31    1
    22    33    34    1
    23    34    35    1
    24    35    36    1
    25    36    39    1
    26    39    40   ar
    27    39    41   ar
    28    36    37    1
    29    37    38    1
    30    22    23    1
    31    23    24    1
    32    24    25    1
    33    25    26    1
    34    26    27    1
    35    27    28    1
    36    15    16   ar
    37    16    20    1
    38    20    21    1
    39    16    17   ar
    40    17    12   ar
    41    11     1   ar
    42    38    33    1
    43    28    23    1
    44    10     3   ar
    45    31    32    1
@<TRIPOS>MOLECULE
*****
 41 45 0 0 0
SMALL
GASTEIGER

@<TRIPOS>ATOM
      1 C          61.6782   86.6313    9.9325 C.ar    1  UNL1        0.1486
      2 N          62.0403   85.1954    9.6940 N.ar    1  UNL1       -0.2266
      3 C          62.7722   84.6947   10.9038 C.ar    1  UNL1        0.1010
      4 C          63.3681   83.3586   11.2348 C.ar    1  UNL1        0.0526
      5 C          64.0543   83.1490   12.5520 C.ar    1  UNL1        0.1690
      6 F          64.6503   81.8128   12.8831 F       1  UNL1       -0.2017
      7 C          64.1446   84.2756   13.5383 C.ar    1  UNL1        0.1689
      8 F          64.8308   84.0660   14.8556 F       1  UNL1       -0.2017
      9 C          63.5486   85.6117   13.2073 C.ar    1  UNL1        0.0507
     10 C          62.8625   85.8213   11.8900 C.ar    1  UNL1        0.0816
     11 N          62.1863   87.0181   11.2897 N.ar    1  UNL1       -0.3046
     12 C          59.4575   89.3086    7.0776 C.ar    1  UNL1        0.2275
     13 C          60.2405   89.9046    8.2096 C.ar    1  UNL1        0.0580
     14 C          60.9808   89.0122    9.1612 C.ar    1  UNL1        0.0125
     15 C          60.9379   87.5237    8.9808 C.ar    1  UNL1        0.0875
     16 C          60.1549   86.9277    7.8488 C.ar    1  UNL1        0.2303
     17 N          59.4146   87.8201    6.8972 N.ar    1  UNL1       -0.1766
     18 C          59.4762   91.0534    5.1527 C.3     1  UNL1        0.2542
     19 O          58.7172   90.2010    6.1259 O.3     1  UNL1       -0.4561
     20 O          60.1120   85.4392    7.6684 O.3     1  UNL1       -0.4560
     21 C          61.0020   84.7804    6.6566 C.3     1  UNL1        0.2542
     22 C          62.0435   88.3653   11.9337 C.3     1  UNL1        0.1628
     23 C          60.7113   89.0546   11.9432 C.3     1  UNL1        0.0297
     24 C          59.4827   88.3063   12.3684 C.3     1  UNL1        0.0024
     25 C          58.1505   88.9955   12.3780 C.3     1  UNL1        0.0001
     26 C          58.0468   90.4331   11.9624 C.3     1  UNL1        0.0000
     27 C          59.2753   91.1814   11.5373 C.3     1  UNL1        0.0001
     28 C          60.6076   90.4921   11.5277 C.3     1  UNL1        0.0024
     29 C          63.2329   89.0233   12.5681 C.2     1  UNL1        0.2431
     30 O          64.3506   88.5361   13.4417 O.2     1  UNL1       -0.2731
     31 N          63.4766   90.4893   12.3641 N.am    1  UNL1       -0.3044
     32 H          62.8560   91.0196   11.8138 H       1  UNL1        0.1494
     33 C          64.6660   91.1472   12.9985 C.3     1  UNL1        0.0716
     34 C          65.5673   92.0202   12.1766 C.3     1  UNL1        0.0199
     35 C          66.7568   92.6782   12.8110 C.3     1  UNL1        0.0072
     36 C          67.0449   92.4631   14.2672 C.3     1  UNL1        0.0367
     37 C          66.1436   91.5900   15.0891 C.3     1  UNL1        0.0072
     38 C          64.9542   90.9320   14.4547 C.3     1  UNL1        0.0199
     39 C          68.2343   93.1209   14.9016 C.2     1  UNL1        0.0500
     40 O          69.6168   92.7995   14.4165 O.co2   1  UNL1       -0.5492
     41 O          68.0411   94.1003   16.0212 O.co2   1  UNL1       -0.5492
@<TRIPOS>UNITY_ATOM_ATTR
40 1
charge -1
@<TRIPOS>BOND
     1    18    19    1
     2    19    12    1
     3    12    13   ar
     4    13    14   ar
     5    14    15   ar
     6    15     1    1
     7     1     2   ar
     8     2     3   ar
     9     3     4   ar
    10     4     5   ar
    11     5     6    1
    12     5     7   ar
    13     7     8    1
    14     7     9   ar
    15     9    10   ar
    16    10    11   ar
    17    11    22    1
    18    22    29    1
    19    29    30    2
    20    29    31   am
    21    33    31    1
    22    33    34    1
    23    34    35    1
    24    35    36    1
    25    36    39    1
    26    39    40   ar
    27    39    41   ar
    28    36    37    1
    29    37    38    1
    30    22    23    1
    31    23    24    1
    32    24    25    1
    33    25    26    1
    34    26    27    1
    35    27    28    1
    36    15    16   ar
    37    16    20    1
    38    20    21    1
    39    16    17   ar
    40    17    12   ar
    41    11     1   ar
    42    38    33    1
    43    28    23    1
    44    10     3   ar
    45    31    32    1
@<TRIPOS>MOLECULE
*****
 41 45 0 0 0
SMALL
GASTEIGER

@<TRIPOS>ATOM
      1 C          63.8033   86.0138   13.9454 C.ar    1  UNL1        0.1486
      2 N          64.2839   86.9813   14.9861 N.ar    1  UNL1       -0.2266
      3 C          64.2106   88.3621   14.4045 C.ar    1  UNL1        0.1010
      4 C          64.5547   89.7085   14.9689 C.ar    1  UNL1        0.0526
      5 C          64.3730   90.9408   14.1333 C.ar    1  UNL1        0.1690
      6 F          64.7172   92.2873   14.6977 F       1  UNL1       -0.2017
      7 C          63.8471   90.8266   12.7331 C.ar    1  UNL1        0.1689
      8 F          63.6654   92.0590   11.8974 F       1  UNL1       -0.2017
      9 C          63.5029   89.4802   12.1687 C.ar    1  UNL1        0.0507
     10 C          63.6847   88.2479   13.0043 C.ar    1  UNL1        0.0816
     11 N          63.4330   86.7967   12.7206 N.ar    1  UNL1       -0.3046
     12 C          63.5219   81.5473   14.4152 C.ar    1  UNL1        0.2275
     13 C          64.6758   82.1520   13.6717 C.ar    1  UNL1        0.0580
     14 C          64.7696   83.6409   13.5151 C.ar    1  UNL1        0.0125
     15 C          63.7095   84.5250   14.1020 C.ar    1  UNL1        0.0875
     16 C          62.5556   83.9203   14.8455 C.ar    1  UNL1        0.2303
     17 N          62.4618   82.4314   15.0021 N.ar    1  UNL1       -0.1766
     18 C          62.4782   79.2728   13.7172 C.3     1  UNL1        0.2542
     19 O          63.4281   80.0584   14.5718 O.3     1  UNL1       -0.4561
     20 O          61.4955   84.8044   15.4324 O.3     1  UNL1       -0.4560
     21 C          61.7730   85.5758   16.6885 C.3     1  UNL1        0.2542
     22 C          62.9038   86.2281   11.4374 C.3     1  UNL1        0.1628
     23 C          62.9888   84.7530   11.1792 C.3     1  UNL1        0.0297
     24 C          64.1151   84.1989   10.3579 C.3     1  UNL1        0.0024
     25 C          64.2001   82.7237   10.0997 C.3     1  UNL1        0.0001
     26 C          63.1587   81.8026   10.6629 C.3     1  UNL1        0.0000
     27 C          62.0325   82.3566   11.4842 C.3     1  UNL1        0.0001
     28 C          61.9475   83.8317   11.7424 C.3     1  UNL1        0.0024
     29 C          62.2896   87.1347   10.4122 C.2     1  UNL1        0.2431
     30 O          62.7731   88.3431    9.6665 O.2     1  UNL1       -0.2731
     31 N          60.8868   86.8914    9.9400 N.am    1  UNL1       -0.3044
     32 H          60.3692   86.1367   10.3029 H       1  UNL1        0.1494
     33 C          60.2728   87.7980    8.9149 C.3     1  UNL1        0.0716
     34 C          60.2761   89.2827    9.1286 C.3     1  UNL1        0.0199
     35 C          59.6620   90.1894    8.1035 C.3     1  UNL1        0.0072
     36 C          59.0447   89.6114    6.8646 C.3     1  UNL1        0.0367
     37 C          59.0414   88.1267    6.6509 C.3     1  UNL1        0.0072
     38 C          59.6554   87.2200    7.6760 C.3     1  UNL1        0.0199
     39 C          58.4306   90.5181    5.8395 C.2     1  UNL1        0.0500
     40 O          56.9402   90.5664    5.6776 O.co2   1  UNL1       -0.5492
     41 O          59.3071   91.3764    4.9763 O.co2   1  UNL1       -0.5492
@<TRIPOS>UNITY_ATOM_ATTR
40 1
charge -1
@<TRIPOS>BOND
     1    18    19    1
     2    19    12    1
     3    12    13   ar
     4    13    14   ar
     5    14    15   ar
     6    15     1    1
     7     1     2   ar
     8     2     3   ar
     9     3     4   ar
    10     4     5   ar
    11     5     6    1
    12     5     7   ar
    13     7     8    1
    14     7     9   ar
    15     9    10   ar
    16    10    11   ar
    17    11    22    1
    18    22    29    1
    19    29    30    2
    20    29    31   am
    21    33    31    1
    22    33    34    1
    23    34    35    1
    24    35    36    1
    25    36    39    1
    26    39    40   ar
    27    39    41   ar
    28    36    37    1
    29    37    38    1
    30    22    23    1
    31    23    24    1
    32    24    25    1
    33    25    26    1
    34    26    27    1
    35    27    28    1
    36    15    16   ar
    37    16    20    1
    38    20    21    1
    39    16    17   ar
    40    17    12   ar
    41    11     1   ar
    42    38    33    1
    43    28    23    1
    44    10     3   ar
    45    31    32    1
@<TRIPOS>MOLECULE
*****
 41 45 0 0 0
SMALL
GASTEIGER

@<TRIPOS>ATOM
      1 C          63.0908   90.3865   10.5883 C.ar    1  UNL1        0.1486
      2 N          63.6347   91.5569    9.8240 N.ar    1  UNL1       -0.2266
      3 C          64.5753   92.3018   10.7242 C.ar    1  UNL1        0.1010
      4 C          65.4026   93.5349   10.5119 C.ar    1  UNL1        0.0526
      5 C          66.2672   94.0579   11.6204 C.ar    1  UNL1        0.1690
      6 F          67.0945   95.2911   11.4082 F       1  UNL1       -0.2017
      7 C          66.3047   93.3478   12.9411 C.ar    1  UNL1        0.1689
      8 F          67.1695   93.8709   14.0496 F       1  UNL1       -0.2017
      9 C          65.4775   92.1147   13.1534 C.ar    1  UNL1        0.0507
     10 C          64.6128   91.5917   12.0449 C.ar    1  UNL1        0.0816
     11 N          63.6954   90.4080   11.9609 N.ar    1  UNL1       -0.3046
     12 C          60.1603   87.3447    9.0360 C.ar    1  UNL1        0.2275
     13 C          61.6341   87.0813    8.9439 C.ar    1  UNL1        0.0580
     14 C          62.6109   88.0953    9.4614 C.ar    1  UNL1        0.0125
     15 C          62.1140   89.3725   10.0709 C.ar    1  UNL1        0.0875
     16 C          60.6402   89.6359   10.1630 C.ar    1  UNL1        0.2303
     17 N          59.6634   88.6220    9.6455 N.ar    1  UNL1       -0.1766
     18 C          59.4498   85.6267    7.2212 C.3     1  UNL1        0.2542
     19 O          59.1835   86.3308    8.5186 O.3     1  UNL1       -0.4561
     20 O          60.1432   90.9132   10.7725 O.3     1  UNL1       -0.4560
     21 C          58.9675   90.8921   11.7037 C.3     1  UNL1        0.2542
     22 C          63.4291   89.4193   13.0572 C.3     1  UNL1        0.1628
     23 C          63.4820   89.8568   14.4909 C.3     1  UNL1        0.0297
     24 C          63.1150   88.8955   15.5824 C.3     1  UNL1        0.0024
     25 C          63.1678   89.3330   17.0162 C.3     1  UNL1        0.0001
     26 C          63.5876   90.7318   17.3585 C.3     1  UNL1        0.0000
     27 C          63.9545   91.6931   16.2671 C.3     1  UNL1        0.0001
     28 C          63.9017   91.2556   14.8333 C.3     1  UNL1        0.0024
     29 C          63.1101   87.9929   12.7196 C.2     1  UNL1        0.2431
     30 O          62.0417   87.3295   11.9021 O.2     1  UNL1       -0.2731
     31 N          63.9701   86.8856   13.2527 N.am    1  UNL1       -0.3044
     32 H          64.7440   87.0949   13.8241 H       1  UNL1        0.1494
     33 C          63.6511   85.4594   12.9151 C.3     1  UNL1        0.0716
     34 C          63.4663   85.0509   11.4836 C.3     1  UNL1        0.0199
     35 C          63.1471   83.6246   11.1459 C.3     1  UNL1        0.0072
     36 C          63.0128   82.6069   12.2397 C.3     1  UNL1        0.0367
     37 C          63.1977   83.0155   13.6711 C.3     1  UNL1        0.0072
     38 C          63.5168   84.4417   14.0088 C.3     1  UNL1        0.0199
     39 C          62.6938   81.1807   11.9021 C.2     1  UNL1        0.0500
     40 O          62.1850   80.2538   12.9660 O.co2   1  UNL1       -0.5492
     41 O          62.8835   80.6813   10.5004 O.co2   1  UNL1       -0.5492
@<TRIPOS>UNITY_ATOM_ATTR
40 1
charge -1
@<TRIPOS>BOND
     1    18    19    1
     2    19    12    1
     3    12    13   ar
     4    13    14   ar
     5    14    15   ar
     6    15     1    1
     7     1     2   ar
     8     2     3   ar
     9     3     4   ar
    10     4     5   ar
    11     5     6    1
    12     5     7   ar
    13     7     8    1
    14     7     9   ar
    15     9    10   ar
    16    10    11   ar
    17    11    22    1
    18    22    29    1
    19    29    30    2
    20    29    31   am
    21    33    31    1
    22    33    34    1
    23    34    35    1
    24    35    36    1
    25    36    39    1
    26    39    40   ar
    27    39    41   ar
    28    36    37    1
    29    37    38    1
    30    22    23    1
    31    23    24    1
    32    24    25    1
    33    25    26    1
    34    26    27    1
    35    27    28    1
    36    15    16   ar
    37    16    20    1
    38    20    21    1
    39    16    17   ar
    40    17    12   ar
    41    11     1   ar
    42    38    33    1
    43    28    23    1
    44    10     3   ar
    45    31    32    1
@<TRIPOS>MOLECULE
*****
 41 45 0 0 0
SMALL
GASTEIGER

@<TRIPOS>ATOM
      1 C          63.1303   89.6332   11.6917 C.ar    1  UNL1        0.1486
      2 N          63.7154   90.9549   11.2908 N.ar    1  UNL1       -0.2266
      3 C          64.6679   91.3856   12.3665 C.ar    1  UNL1        0.1010
      4 C          65.5324   92.6026   12.5133 C.ar    1  UNL1        0.0526
      5 C          66.4005   92.7641   13.7258 C.ar    1  UNL1        0.1690
      6 F          67.2651   93.9811   13.8726 F       1  UNL1       -0.2017
      7 C          66.4041   91.7085   14.7916 C.ar    1  UNL1        0.1689
      8 F          67.2722   91.8701   16.0042 F       1  UNL1       -0.2017
      9 C          65.5396   90.4916   14.6449 C.ar    1  UNL1        0.0507
     10 C          64.6715   90.3301   13.4323 C.ar    1  UNL1        0.0816
     11 N          63.7212   89.2471   13.0152 N.ar    1  UNL1       -0.3046
     12 C          60.1292   87.2456    9.3373 C.ar    1  UNL1        0.2275
     13 C          61.5689   87.2641    8.9169 C.ar    1  UNL1        0.0580
     14 C          62.5693   88.0600    9.7017 C.ar    1  UNL1        0.0125
     15 C          62.1299   88.8373   10.9069 C.ar    1  UNL1        0.0875
     16 C          60.6902   88.8188   11.3273 C.ar    1  UNL1        0.2303
     17 N          59.6898   88.0230   10.5425 N.ar    1  UNL1       -0.1766
     18 C          59.4912   85.9161    7.1983 C.3     1  UNL1        0.2542
     19 O          59.1289   86.4498    8.5525 O.3     1  UNL1       -0.4561
     20 O          60.2507   89.5962   12.5326 O.3     1  UNL1       -0.4560
     21 C          58.8693   89.4058   13.0852 C.3     1  UNL1        0.2542
     22 C          63.4155   87.9973   13.7864 C.3     1  UNL1        0.1628
     23 C          63.2812   88.0511   15.2793 C.3     1  UNL1        0.0297
     24 C          63.2129   89.3762   15.9790 C.3     1  UNL1        0.0024
     25 C          63.0786   89.4301   17.4720 C.3     1  UNL1        0.0001
     26 C          63.0126   88.1588   18.2654 C.3     1  UNL1        0.0000
     27 C          63.0809   86.8337   17.5658 C.3     1  UNL1        0.0001
     28 C          63.2152   86.7798   16.0728 C.3     1  UNL1        0.0024
     29 C          63.2441   86.6936   13.0644 C.2     1  UNL1        0.2431
     30 O          62.7155   86.3122   11.7135 O.2     1  UNL1       -0.2731
     31 N          63.6513   85.4106   13.7263 N.am    1  UNL1       -0.3044
     32 H          64.0312   85.4241   14.6345 H       1  UNL1        0.1494
     33 C          63.4799   84.1070   13.0044 C.3     1  UNL1        0.0716
     34 C          64.3730   83.7669   11.8482 C.3     1  UNL1        0.0199
     35 C          64.2016   82.4633   11.1261 C.3     1  UNL1        0.0072
     36 C          63.1372   81.4998   11.5603 C.3     1  UNL1        0.0367
     37 C          62.2441   81.8399   12.7165 C.3     1  UNL1        0.0072
     38 C          62.4154   83.1435   13.4385 C.3     1  UNL1        0.0199
     39 C          62.9657   80.1962   10.8384 C.2     1  UNL1        0.0500
     40 O          63.0673   80.1481    9.3426 O.co2   1  UNL1       -0.5492
     41 O          62.6927   78.9406   11.6123 O.co2   1  UNL1       -0.5492
@<TRIPOS>UNITY_ATOM_ATTR
40 1
charge -1
@<TRIPOS>BOND
     1    18    19    1
     2    19    12    1
     3    12    13   ar
     4    13    14   ar
     5    14    15   ar
     6    15     1    1
     7     1     2   ar
     8     2     3   ar
     9     3     4   ar
    10     4     5   ar
    11     5     6    1
    12     5     7   ar
    13     7     8    1
    14     7     9   ar
    15     9    10   ar
    16    10    11   ar
    17    11    22    1
    18    22    29    1
    19    29    30    2
    20    29    31   am
    21    33    31    1
    22    33    34    1
    23    34    35    1
    24    35    36    1
    25    36    39    1
    26    39    40   ar
    27    39    41   ar
    28    36    37    1
    29    37    38    1
    30    22    23    1
    31    23    24    1
    32    24    25    1
    33    25    26    1
    34    26    27    1
    35    27    28    1
    36    15    16   ar
    37    16    20    1
    38    20    21    1
    39    16    17   ar
    40    17    12   ar
    41    11     1   ar
    42    38    33    1
    43    28    23    1
    44    10     3   ar
    45    31    32    1
@<TRIPOS>MOLECULE
*****
 41 45 0 0 0
SMALL
GASTEIGER

@<TRIPOS>ATOM
      1 C          61.9083   86.1181   11.2895 C.ar    1  UNL1        0.1486
      2 N          62.1065   84.6626   11.5931 N.ar    1  UNL1       -0.2266
      3 C          62.9189   84.5575   12.8496 C.ar    1  UNL1        0.1010
      4 C          63.4211   83.3752   13.6242 C.ar    1  UNL1        0.0526
      5 C          64.2273   83.5836   14.8718 C.ar    1  UNL1        0.1690
      6 F          64.7296   82.4013   15.6464 F       1  UNL1       -0.2017
      7 C          64.5313   84.9742   15.3449 C.ar    1  UNL1        0.1689
      8 F          65.3375   85.1825   16.5926 F       1  UNL1       -0.2017
      9 C          64.0290   86.1565   14.5703 C.ar    1  UNL1        0.0507
     10 C          63.2228   85.9481   13.3227 C.ar    1  UNL1        0.0816
     11 N          62.5983   86.9126   12.3585 N.ar    1  UNL1       -0.3046
     12 C          59.6420   87.8051    7.7870 C.ar    1  UNL1        0.2275
     13 C          59.0137   87.7880    9.1489 C.ar    1  UNL1        0.0580
     14 C          59.7691   87.2257   10.3164 C.ar    1  UNL1        0.0125
     15 C          61.1529   86.6804   10.1220 C.ar    1  UNL1        0.0875
     16 C          61.7812   86.6975    8.7601 C.ar    1  UNL1        0.2303
     17 N          61.0257   87.2598    7.5926 N.ar    1  UNL1       -0.1766
     18 C          59.1790   89.7568    6.1358 C.3     1  UNL1        0.2542
     19 O          58.8865   88.3674    6.6195 O.3     1  UNL1       -0.4561
     20 O          63.1650   86.1521    8.5656 O.3     1  UNL1       -0.4560
     21 C          63.3559   84.7353    8.1118 C.3     1  UNL1        0.2542
     22 C          62.6539   88.4089   12.4477 C.3     1  UNL1        0.1628
     23 C          61.5900   89.2394   11.7933 C.3     1  UNL1        0.0297
     24 C          61.8258   89.8235   10.4319 C.3     1  UNL1        0.0024
     25 C          60.7619   90.6539    9.7775 C.3     1  UNL1        0.0001
     26 C          59.4620   90.9004   10.4844 C.3     1  UNL1        0.0000
     27 C          59.2262   90.3163   11.8457 C.3     1  UNL1        0.0001
     28 C          60.2901   89.4858   12.5002 C.3     1  UNL1        0.0024
     29 C          63.7736   89.0749   13.1914 C.2     1  UNL1        0.2431
     30 O          64.7834   88.6032   14.1953 O.2     1  UNL1       -0.2731
     31 N          64.0541   90.5326   12.9765 N.am    1  UNL1       -0.3044
     32 H          63.5033   91.0524   12.3474 H       1  UNL1        0.1494
     33 C          65.1737   91.1985   13.7201 C.3     1  UNL1        0.0716
     34 C          65.0142   91.5328   15.1737 C.3     1  UNL1        0.0199
     35 C          66.1338   92.1986   15.9174 C.3     1  UNL1        0.0072
     36 C          67.4130   92.5301   15.2076 C.3     1  UNL1        0.0367
     37 C          67.5725   92.1958   13.7541 C.3     1  UNL1        0.0072
     38 C          66.4529   91.5299   13.0103 C.3     1  UNL1        0.0199
     39 C          68.5326   93.1959   15.9513 C.2     1  UNL1        0.0500
     40 O          68.5855   94.6921   16.0451 O.co2   1  UNL1       -0.5492
     41 O          69.5995   92.3656   16.6011 O.co2   1  UNL1       -0.5492
@<TRIPOS>UNITY_ATOM_ATTR
40 1
charge -1
@<TRIPOS>BOND
     1    18    19    1
     2    19    12    1
     3    12    13   ar
     4    13    14   ar
     5    14    15   ar
     6    15     1    1
     7     1     2   ar
     8     2     3   ar
     9     3     4   ar
    10     4     5   ar
    11     5     6    1
    12     5     7   ar
    13     7     8    1
    14     7     9   ar
    15     9    10   ar
    16    10    11   ar
    17    11    22    1
    18    22    29    1
    19    29    30    2
    20    29    31   am
    21    33    31    1
    22    33    34    1
    23    34    35    1
    24    35    36    1
    25    36    39    1
    26    39    40   ar
    27    39    41   ar
    28    36    37    1
    29    37    38    1
    30    22    23    1
    31    23    24    1
    32    24    25    1
    33    25    26    1
    34    26    27    1
    35    27    28    1
    36    15    16   ar
    37    16    20    1
    38    20    21    1
    39    16    17   ar
    40    17    12   ar
    41    11     1   ar
    42    38    33    1
    43    28    23    1
    44    10     3   ar
    45    31    32    1
@<TRIPOS>MOLECULE
*****
 41 45 0 0 0
SMALL
GASTEIGER

@<TRIPOS>ATOM
      1 C          62.7099   83.4037   14.2109 C.ar    1  UNL1        0.1486
      2 N          62.6221   81.9240   14.4406 N.ar    1  UNL1       -0.2266
      3 C          62.6768   81.2435   13.1050 C.ar    1  UNL1        0.1010
      4 C          62.6316   79.7963   12.7133 C.ar    1  UNL1        0.0526
      5 C          62.7080   79.4082   11.2664 C.ar    1  UNL1        0.1690
      6 F          62.6628   77.9609   10.8747 F       1  UNL1       -0.2017
      7 C          62.8297   80.4673   10.2112 C.ar    1  UNL1        0.1689
      8 F          62.9062   80.0792    8.7643 F       1  UNL1       -0.2017
      9 C          62.8750   81.9146   10.6029 C.ar    1  UNL1        0.0507
     10 C          62.7985   82.3027   12.0498 C.ar    1  UNL1        0.0816
     11 N          62.8190   83.6377   12.7333 N.ar    1  UNL1       -0.3046
     12 C          62.6558   86.5827   17.3955 C.ar    1  UNL1        0.2275
     13 C          61.4009   86.2538   16.6426 C.ar    1  UNL1        0.0580
     14 C          61.4189   85.1942   15.5811 C.ar    1  UNL1        0.0125
     15 C          62.6919   84.4634   15.2725 C.ar    1  UNL1        0.0875
     16 C          63.9469   84.7922   16.0253 C.ar    1  UNL1        0.2303
     17 N          63.9288   85.8519   17.0868 N.ar    1  UNL1       -0.1766
     18 C          62.6796   87.2539   19.9052 C.3     1  UNL1        0.2542
     19 O          62.6378   87.6423   18.4570 O.3     1  UNL1       -0.4561
     20 O          65.2200   84.0614   15.7167 O.3     1  UNL1       -0.4560
     21 C          66.1888   84.6295   14.7224 C.3     1  UNL1        0.2542
     22 C          62.9292   84.9725   12.0578 C.3     1  UNL1        0.1628
     23 C          62.5041   85.1266   10.6276 C.3     1  UNL1        0.0297
     24 C          63.3900   84.6292    9.5240 C.3     1  UNL1        0.0024
     25 C          62.9649   84.7834    8.0938 C.3     1  UNL1        0.0001
     26 C          61.6539   85.4349    7.7671 C.3     1  UNL1        0.0000
     27 C          60.7680   85.9323    8.8706 C.3     1  UNL1        0.0001
     28 C          61.1931   85.7782   10.3009 C.3     1  UNL1        0.0024
     29 C          63.4645   86.1532   12.8125 C.2     1  UNL1        0.2431
     30 O          64.4374   86.3134   13.9429 O.2     1  UNL1       -0.2731
     31 N          63.0085   87.5380   12.4601 N.am    1  UNL1       -0.3044
     32 H          62.3579   87.6721   11.7335 H       1  UNL1        0.1494
     33 C          63.5439   88.7186   13.2148 C.3     1  UNL1        0.0716
     34 C          63.7015   90.0411   12.5247 C.3     1  UNL1        0.0199
     35 C          64.2369   91.2218   13.2794 C.3     1  UNL1        0.0072
     36 C          64.6146   91.0799   14.7241 C.3     1  UNL1        0.0367
     37 C          64.4569   89.7574   15.4141 C.3     1  UNL1        0.0072
     38 C          63.9216   88.5767   14.6595 C.3     1  UNL1        0.0199
     39 C          65.1499   92.2605   15.4788 C.2     1  UNL1        0.0500
     40 O          64.6744   92.5370   16.8743 O.co2   1  UNL1       -0.5492
     41 O          66.1608   93.1646   14.8380 O.co2   1  UNL1       -0.5492
@<TRIPOS>UNITY_ATOM_ATTR
40 1
charge -1
@<TRIPOS>BOND
     1    18    19    1
     2    19    12    1
     3    12    13   ar
     4    13    14   ar
     5    14    15   ar
     6    15     1    1
     7     1     2   ar
     8     2     3   ar
     9     3     4   ar
    10     4     5   ar
    11     5     6    1
    12     5     7   ar
    13     7     8    1
    14     7     9   ar
    15     9    10   ar
    16    10    11   ar
    17    11    22    1
    18    22    29    1
    19    29    30    2
    20    29    31   am
    21    33    31    1
    22    33    34    1
    23    34    35    1
    24    35    36    1
    25    36    39    1
    26    39    40   ar
    27    39    41   ar
    28    36    37    1
    29    37    38    1
    30    22    23    1
    31    23    24    1
    32    24    25    1
    33    25    26    1
    34    26    27    1
    35    27    28    1
    36    15    16   ar
    37    16    20    1
    38    20    21    1
    39    16    17   ar
    40    17    12   ar
    41    11     1   ar
    42    38    33    1
    43    28    23    1
    44    10     3   ar
    45    31    32    1
@<TRIPOS>MOLECULE
*****
 41 45 0 0 0
SMALL
GASTEIGER

@<TRIPOS>ATOM
      1 C          61.7478   86.7462    9.9627 C.ar    1  UNL1        0.1486
      2 N          62.1583   85.3401    9.6401 N.ar    1  UNL1       -0.2266
      3 C          62.8456   84.7697   10.8452 C.ar    1  UNL1        0.1010
      4 C          63.4603   83.4270   11.1084 C.ar    1  UNL1        0.0526
      5 C          64.0893   83.1381   12.4392 C.ar    1  UNL1        0.1690
      6 F          64.7040   81.7953   12.7024 F       1  UNL1       -0.2017
      7 C          64.1036   84.1918   13.5066 C.ar    1  UNL1        0.1689
      8 F          64.7326   83.9027   14.8374 F       1  UNL1       -0.2017
      9 C          63.4889   85.5344   13.2434 C.ar    1  UNL1        0.0507
     10 C          62.8599   85.8234   11.9127 C.ar    1  UNL1        0.0816
     11 N          62.1814   87.0450   11.3673 N.ar    1  UNL1       -0.3046
     12 C          59.5936   89.5724    7.2019 C.ar    1  UNL1        0.2275
     13 C          59.0842   88.1742    7.3905 C.ar    1  UNL1        0.0580
     14 C          59.8023   87.2322    8.3108 C.ar    1  UNL1        0.0125
     15 C          61.0297   87.6883    9.0425 C.ar    1  UNL1        0.0875
     16 C          61.5390   89.0865    8.8538 C.ar    1  UNL1        0.2303
     17 N          60.8210   90.0285    7.9335 N.ar    1  UNL1       -0.1766
     18 C          57.4637   90.2257    5.8652 C.3     1  UNL1        0.2542
     19 O          58.8755   90.5144    6.2816 O.3     1  UNL1       -0.4561
     20 O          62.7665   89.5427    9.5855 O.3     1  UNL1       -0.4560
     21 C          63.0611   91.0077    9.7154 C.3     1  UNL1        0.2542
     22 C          61.9731   88.3382   12.0982 C.3     1  UNL1        0.1628
     23 C          60.6236   88.9929   12.0943 C.3     1  UNL1        0.0297
     24 C          60.4630   90.3768   11.5382 C.3     1  UNL1        0.0024
     25 C          59.1135   91.0317   11.5344 C.3     1  UNL1        0.0001
     26 C          57.9245   90.3026   12.0866 C.3     1  UNL1        0.0000
     27 C          58.0851   88.9188   12.6427 C.3     1  UNL1        0.0001
     28 C          59.4346   88.2640   12.6466 C.3     1  UNL1        0.0024
     29 C          63.1144   88.9767   12.8330 C.2     1  UNL1        0.2431
     30 O          64.1578   88.4671   13.7824 O.2     1  UNL1       -0.2731
     31 N          63.3833   90.4436   12.6717 N.am    1  UNL1       -0.3044
     32 H          62.8107   90.9873   12.0837 H       1  UNL1        0.1494
     33 C          64.5245   91.0820   13.4065 C.3     1  UNL1        0.0716
     34 C          64.5581   91.0582   14.9059 C.3     1  UNL1        0.0199
     35 C          65.6994   91.6966   15.6408 C.3     1  UNL1        0.0072
     36 C          66.8070   92.3588   14.8762 C.3     1  UNL1        0.0367
     37 C          66.7734   92.3826   13.3768 C.3     1  UNL1        0.0072
     38 C          65.6322   91.7442   12.6419 C.3     1  UNL1        0.0199
     39 C          67.9483   92.9972   15.6110 C.2     1  UNL1        0.0500
     40 O          68.7416   92.1995   16.6031 O.co2   1  UNL1       -0.5492
     41 O          68.2962   94.4334   15.3536 O.co2   1  UNL1       -0.5492
@<TRIPOS>UNITY_ATOM_ATTR
40 1
charge -1
@<TRIPOS>BOND
     1    18    19    1
     2    19    12    1
     3    12    13   ar
     4    13    14   ar
     5    14    15   ar
     6    15     1    1
     7     1     2   ar
     8     2     3   ar
     9     3     4   ar
    10     4     5   ar
    11     5     6    1
    12     5     7   ar
    13     7     8    1
    14     7     9   ar
    15     9    10   ar
    16    10    11   ar
    17    11    22    1
    18    22    29    1
    19    29    30    2
    20    29    31   am
    21    33    31    1
    22    33    34    1
    23    34    35    1
    24    35    36    1
    25    36    39    1
    26    39    40   ar
    27    39    41   ar
    28    36    37    1
    29    37    38    1
    30    22    23    1
    31    23    24    1
    32    24    25    1
    33    25    26    1
    34    26    27    1
    35    27    28    1
    36    15    16   ar
    37    16    20    1
    38    20    21    1
    39    16    17   ar
    40    17    12   ar
    41    11     1   ar
    42    38    33    1
    43    28    23    1
    44    10     3   ar
    45    31    32    1
@<TRIPOS>MOLECULE
*****
 41 45 0 0 0
SMALL
GASTEIGER

@<TRIPOS>ATOM
      1 C          64.1980   90.8644   11.7603 C.ar    1  UNL1        0.1486
      2 N          63.6709   91.2910   10.4223 N.ar    1  UNL1       -0.2266
      3 C          62.5031   90.4131   10.0827 C.ar    1  UNL1        0.1010
      4 C          61.5918   90.3710    8.8919 C.ar    1  UNL1        0.0526
      5 C          60.4859   89.3596    8.8293 C.ar    1  UNL1        0.1690
      6 F          59.5746   89.3175    7.6386 F       1  UNL1       -0.2017
      7 C          60.2912   88.3904    9.9575 C.ar    1  UNL1        0.1689
      8 F          59.1851   87.3790    9.8948 F       1  UNL1       -0.2017
      9 C          61.2024   88.4325   11.1482 C.ar    1  UNL1        0.0507
     10 C          62.3083   89.4438   11.2108 C.ar    1  UNL1        0.0816
     11 N          63.3558   89.7228   12.2476 N.ar    1  UNL1       -0.3046
     12 C          67.6919   92.6891   13.9311 C.ar    1  UNL1        0.2275
     13 C          67.2131   91.3165   14.3008 C.ar    1  UNL1        0.0580
     14 C          66.0485   90.7083   13.5772 C.ar    1  UNL1        0.0125
     15 C          65.3626   91.4727   12.4839 C.ar    1  UNL1        0.0875
     16 C          65.8414   92.8453   12.1142 C.ar    1  UNL1        0.2303
     17 N          67.0061   93.4535   12.8378 N.ar    1  UNL1       -0.1766
     18 C          68.6869   93.8048   16.0560 C.3     1  UNL1        0.2542
     19 O          68.8566   93.2974   14.6547 O.3     1  UNL1       -0.4561
     20 O          65.1555   93.6097   11.0209 O.3     1  UNL1       -0.4560
     21 C          65.8027   94.8321   10.4406 C.3     1  UNL1        0.2542
     22 C          63.5305   88.9889   13.5441 C.3     1  UNL1        0.1628
     23 C          63.5849   89.7501   14.8354 C.3     1  UNL1        0.0297
     24 C          63.3812   89.0337   16.1375 C.3     1  UNL1        0.0024
     25 C          63.4356   89.7949   17.4288 C.3     1  UNL1        0.0001
     26 C          63.6938   91.2725   17.4181 C.3     1  UNL1        0.0000
     27 C          63.8975   91.9888   16.1161 C.3     1  UNL1        0.0001
     28 C          63.8431   91.2277   14.8248 C.3     1  UNL1        0.0024
     29 C          63.6508   87.4937   13.5493 C.2     1  UNL1        0.2431
     30 O          64.6272   86.5289   14.1540 O.2     1  UNL1       -0.2731
     31 N          62.6358   86.6571   12.8281 N.am    1  UNL1       -0.3044
     32 H          61.8907   87.0894   12.3514 H       1  UNL1        0.1494
     33 C          62.7561   85.1620   12.8333 C.3     1  UNL1        0.0716
     34 C          63.1528   84.4372   11.5814 C.3     1  UNL1        0.0199
     35 C          63.2732   82.9420   11.5865 C.3     1  UNL1        0.0072
     36 C          62.9968   82.1716   12.8436 C.3     1  UNL1        0.0367
     37 C          62.6001   82.8965   14.0955 C.3     1  UNL1        0.0072
     38 C          62.4798   84.3917   14.0904 C.3     1  UNL1        0.0199
     39 C          63.1171   80.6765   12.8488 C.2     1  UNL1        0.0500
     40 O          62.8156   79.8954   11.6043 O.co2   1  UNL1       -0.5492
     41 O          63.5391   79.9625   14.0987 O.co2   1  UNL1       -0.5492
@<TRIPOS>UNITY_ATOM_ATTR
40 1
charge -1
@<TRIPOS>BOND
     1    18    19    1
     2    19    12    1
     3    12    13   ar
     4    13    14   ar
     5    14    15   ar
     6    15     1    1
     7     1     2   ar
     8     2     3   ar
     9     3     4   ar
    10     4     5   ar
    11     5     6    1
    12     5     7   ar
    13     7     8    1
    14     7     9   ar
    15     9    10   ar
    16    10    11   ar
    17    11    22    1
    18    22    29    1
    19    29    30    2
    20    29    31   am
    21    33    31    1
    22    33    34    1
    23    34    35    1
    24    35    36    1
    25    36    39    1
    26    39    40   ar
    27    39    41   ar
    28    36    37    1
    29    37    38    1
    30    22    23    1
    31    23    24    1
    32    24    25    1
    33    25    26    1
    34    26    27    1
    35    27    28    1
    36    15    16   ar
    37    16    20    1
    38    20    21    1
    39    16    17   ar
    40    17    12   ar
    41    11     1   ar
    42    38    33    1
    43    28    23    1
    44    10     3   ar
    45    31    32    1
