@<TRIPOS>MOLECULE
*****
 33 37 0 0 0
SMALL
GASTEIGER

@<TRIPOS>ATOM
      1 N          63.9768   89.4834   13.5979 N.ar    1  UNL1       -0.2172
      2 C          63.1025   89.5269   12.3799 C.ar    1  UNL1        0.0586
      3 C          62.6958   88.1210   12.0509 C.ar    1  UNL1        0.0088
      4 C          63.3187   87.2087   13.0656 C.ar    1  UNL1        0.0161
      5 C          63.2674   85.7201   13.2424 C.ar    1  UNL1        0.0058
      6 C          64.0077   85.0735   14.3754 C.ar    1  UNL1        0.0537
      7 C          64.7995   85.9155   15.3315 C.ar    1  UNL1        0.0061
      8 C          64.8509   87.4041   15.1547 C.ar    1  UNL1        0.0191
      9 C          64.1105   88.0507   14.0217 C.ar    1  UNL1        0.0815
     10 C          61.8107   87.8533   10.8698 C.3     1  UNL1        0.1003
     11 N          61.3323   88.9913   10.0178 N.3     1  UNL1       -0.2697
     12 C          61.7390   90.3972   10.3467 C.3     1  UNL1        0.0786
     13 C          62.6241   90.6649   11.5278 C.3     1  UNL1        0.0627
     14 C          63.9564   83.5848   14.5523 C.2     1  UNL1        0.2490
     15 O          64.1998   82.9813   15.9037 O.2     1  UNL1       -0.2699
     16 N          63.6616   82.6997   13.3777 N.am    1  UNL1       -0.2761
     17 C          63.4182   83.3033   12.0262 C.3     1  UNL1        0.0937
     18 C          63.1235   82.4182   10.8516 C.3     1  UNL1        0.0216
     19 C          63.0721   80.9295   11.0285 C.3     1  UNL1        0.0034
     20 C          62.7774   80.0444    9.8538 C.3     1  UNL1        0.0001
     21 C          63.3155   80.3260   12.3799 C.3     1  UNL1        0.0216
     22 C          63.6103   81.2111   13.5545 C.3     1  UNL1        0.0937
     23 C          60.4472   88.7235    8.8366 C.3     1  UNL1        0.0628
     24 C          59.8728   87.3540    8.6252 C.3     1  UNL1        0.0481
     25 C          58.9877   87.0862    7.4441 C.3     1  UNL1        0.1435
     26 O          58.6770   88.1878    6.4746 O.3     1  UNL1       -0.3537
     27 C          59.2514   89.5573    6.6861 C.3     1  UNL1        0.1435
     28 C          60.1365   89.8251    7.8672 C.3     1  UNL1        0.0481
     29 S          64.6069   90.6651   14.2736 S.O2    1  UNL1        0.0660
     30 O          65.6025   90.7728   13.1568 O.2     1  UNL1       -0.1521
     31 O          63.6113   90.5575   15.3902 O.2     1  UNL1       -0.1521
     32 C          66.7211   91.8848   15.1641 C.3     1  UNL1        0.0294
     33 C          65.2370   91.8469   14.9492 C.3     1  UNL1        0.1752
@<TRIPOS>BOND
     1    32    33    1
     2    33    29    1
     3    29    30    2
     4    29    31    2
     5    29     1    1
     6     1     2   ar
     7     2     3   ar
     8     3     4   ar
     9     4     5   ar
    10     5     6   ar
    11     6    14    1
    12    14    15    2
    13    14    16   am
    14    16    17    1
    15    17    18    1
    16    18    19    1
    17    19    20    1
    18    19    21    1
    19    21    22    1
    20     6     7   ar
    21     7     8   ar
    22     8     9   ar
    23     3    10    1
    24    10    11    1
    25    11    23    1
    26    23    24    1
    27    24    25    1
    28    25    26    1
    29    26    27    1
    30    27    28    1
    31    11    12    1
    32    12    13    1
    33     9     1   ar
    34    28    23    1
    35    13     2    1
    36     9     4   ar
    37    22    16    1
@<TRIPOS>MOLECULE
*****
 33 37 0 0 0
SMALL
GASTEIGER

@<TRIPOS>ATOM
      1 N          62.1881   86.5192   11.0260 N.ar    1  UNL1       -0.2172
      2 C          61.4289   87.1092    9.8747 C.ar    1  UNL1        0.0586
      3 C          61.6235   88.5962    9.9046 C.ar    1  UNL1        0.0088
      4 C          62.5030   88.9253   11.0743 C.ar    1  UNL1        0.0161
      5 C          63.0311   90.2279   11.5978 C.ar    1  UNL1        0.0058
      6 C          63.9083   90.2469   12.8144 C.ar    1  UNL1        0.0537
      7 C          64.2573   88.9632   13.5075 C.ar    1  UNL1        0.0061
      8 C          63.7291   87.6606   12.9840 C.ar    1  UNL1        0.0191
      9 C          62.8520   87.6416   11.7674 C.ar    1  UNL1        0.0815
     10 C          60.9746   89.4585    8.8628 C.3     1  UNL1        0.1003
     11 N          60.1312   88.8338    7.7911 N.3     1  UNL1       -0.2697
     12 C          59.9366   87.3468    7.7613 C.3     1  UNL1        0.0786
     13 C          60.5854   86.4845    8.8031 C.3     1  UNL1        0.0627
     14 C          64.4365   91.5496   13.3380 C.2     1  UNL1        0.2490
     15 O          64.2348   91.9161   14.7784 O.2     1  UNL1       -0.2699
     16 N          65.1664   92.4858   12.4210 N.am    1  UNL1       -0.2761
     17 C          65.3681   92.1192   10.9805 C.3     1  UNL1        0.0937
     18 C          66.0980   93.0554   10.0635 C.3     1  UNL1        0.0216
     19 C          66.6262   94.3581   10.5871 C.3     1  UNL1        0.0034
     20 C          67.3561   95.2943    9.6701 C.3     1  UNL1        0.0001
     21 C          66.4245   94.7246   12.0275 C.3     1  UNL1        0.0216
     22 C          65.6946   93.7884   12.9445 C.3     1  UNL1        0.0937
     23 C          59.4823   89.6962    6.7492 C.3     1  UNL1        0.0628
     24 C          60.3262   90.5568    5.8564 C.3     1  UNL1        0.0481
     25 C          59.6774   91.4192    4.8145 C.3     1  UNL1        0.1435
     26 O          58.1848   91.4209    4.6656 O.3     1  UNL1       -0.3537
     27 C          57.3410   90.5603    5.5586 C.3     1  UNL1        0.1435
     28 C          57.9898   89.6979    6.6004 C.3     1  UNL1        0.0481
     29 S          62.2693   85.0626   11.3748 S.O2    1  UNL1        0.0660
     30 O          62.9177   84.7819   10.0516 O.2     1  UNL1       -0.1521
     31 O          61.6210   85.3432   12.6979 O.2     1  UNL1       -0.1521
     32 C          63.4424   82.7558   11.1445 C.3     1  UNL1        0.0294
     33 C          62.3506   83.6059   11.7234 C.3     1  UNL1        0.1752
@<TRIPOS>BOND
     1    32    33    1
     2    33    29    1
     3    29    30    2
     4    29    31    2
     5    29     1    1
     6     1     2   ar
     7     2     3   ar
     8     3     4   ar
     9     4     5   ar
    10     5     6   ar
    11     6    14    1
    12    14    15    2
    13    14    16   am
    14    16    17    1
    15    17    18    1
    16    18    19    1
    17    19    20    1
    18    19    21    1
    19    21    22    1
    20     6     7   ar
    21     7     8   ar
    22     8     9   ar
    23     3    10    1
    24    10    11    1
    25    11    23    1
    26    23    24    1
    27    24    25    1
    28    25    26    1
    29    26    27    1
    30    27    28    1
    31    11    12    1
    32    12    13    1
    33     9     1   ar
    34    28    23    1
    35    13     2    1
    36     9     4   ar
    37    22    16    1
@<TRIPOS>MOLECULE
*****
 33 37 0 0 0
SMALL
GASTEIGER

@<TRIPOS>ATOM
      1 N          63.5470   90.3543   13.8397 N.ar    1  UNL1       -0.2172
      2 C          64.4013   91.3979   13.1834 C.ar    1  UNL1        0.0586
      3 C          64.0427   91.4419   11.7275 C.ar    1  UNL1        0.0088
      4 C          62.9668   90.4255   11.4841 C.ar    1  UNL1        0.0161
      5 C          62.2266   90.0252   10.2425 C.ar    1  UNL1        0.0058
      6 C          61.1800   88.9526   10.3063 C.ar    1  UNL1        0.0537
      7 C          60.8735   88.2804   11.6117 C.ar    1  UNL1        0.0061
      8 C          61.6138   88.6807   12.8534 C.ar    1  UNL1        0.0191
      9 C          62.6604   89.7532   12.7896 C.ar    1  UNL1        0.0815
     10 C          64.7423   92.4019   10.8115 C.3     1  UNL1        0.1003
     11 N          65.8004   93.3179   11.3514 N.3     1  UNL1       -0.2697
     12 C          66.1589   93.2739   12.8073 C.3     1  UNL1        0.0786
     13 C          65.4594   92.3139   13.7232 C.3     1  UNL1        0.0627
     14 C          60.4396   88.5523    9.0646 C.2     1  UNL1        0.2490
     15 O          59.2747   89.3691    8.5897 O.2     1  UNL1       -0.2699
     16 N          60.8644   87.3350    8.2978 N.am    1  UNL1       -0.2761
     17 C          62.0294   86.5181    8.7727 C.3     1  UNL1        0.0937
     18 C          62.4542   85.3009    8.0059 C.3     1  UNL1        0.0216
     19 C          61.7138   84.9006    6.7642 C.3     1  UNL1        0.0034
     20 C          62.1386   83.6833    5.9974 C.3     1  UNL1        0.0001
     21 C          60.5489   85.7174    6.2894 C.3     1  UNL1        0.0216
     22 C          60.1241   86.9347    7.0561 C.3     1  UNL1        0.0937
     23 C          66.4999   94.2780   10.4354 C.3     1  UNL1        0.0628
     24 C          67.2965   93.7612    9.2741 C.3     1  UNL1        0.0481
     25 C          67.9961   94.7212    8.3581 C.3     1  UNL1        0.1435
     26 O          67.8990   96.1978    8.6033 O.3     1  UNL1       -0.3537
     27 C          67.1024   96.7145    9.7646 C.3     1  UNL1        0.1435
     28 C          66.4028   95.7546   10.6806 C.3     1  UNL1        0.0481
     29 S          63.5743   89.9777   15.2914 S.O2    1  UNL1        0.0660
     30 O          63.8176   88.5461   14.9155 O.2     1  UNL1       -0.1521
     31 O          63.3311   91.4092   15.6674 O.2     1  UNL1       -0.1521
     32 C          63.0585   88.2742   17.1842 C.3     1  UNL1        0.0294
     33 C          63.6017   89.6010   16.7432 C.3     1  UNL1        0.1752
@<TRIPOS>BOND
     1    32    33    1
     2    33    29    1
     3    29    30    2
     4    29    31    2
     5    29     1    1
     6     1     2   ar
     7     2     3   ar
     8     3     4   ar
     9     4     5   ar
    10     5     6   ar
    11     6    14    1
    12    14    15    2
    13    14    16   am
    14    16    17    1
    15    17    18    1
    16    18    19    1
    17    19    20    1
    18    19    21    1
    19    21    22    1
    20     6     7   ar
    21     7     8   ar
    22     8     9   ar
    23     3    10    1
    24    10    11    1
    25    11    23    1
    26    23    24    1
    27    24    25    1
    28    25    26    1
    29    26    27    1
    30    27    28    1
    31    11    12    1
    32    12    13    1
    33     9     1   ar
    34    28    23    1
    35    13     2    1
    36     9     4   ar
    37    22    16    1
@<TRIPOS>MOLECULE
*****
 33 37 0 0 0
SMALL
GASTEIGER

@<TRIPOS>ATOM
      1 N          61.7282   88.5913   10.5682 N.ar    1  UNL1       -0.2172
      2 C          61.9698   87.1636   10.9597 C.ar    1  UNL1        0.0586
      3 C          62.7291   87.1598   12.2533 C.ar    1  UNL1        0.0088
      4 C          62.9569   88.5852   12.6613 C.ar    1  UNL1        0.0161
      5 C          63.6477   89.1918   13.8465 C.ar    1  UNL1        0.0058
      6 C          63.7199   90.6831   13.9903 C.ar    1  UNL1        0.0537
      7 C          63.1013   91.5678   12.9489 C.ar    1  UNL1        0.0061
      8 C          62.4105   90.9612   11.7636 C.ar    1  UNL1        0.0191
      9 C          62.3383   89.4699   11.6198 C.ar    1  UNL1        0.0815
     10 C          63.1151   85.8589   12.8926 C.3     1  UNL1        0.1003
     11 N          62.7417   84.5618   12.2383 N.3     1  UNL1       -0.2697
     12 C          61.9823   84.5656   10.9447 C.3     1  UNL1        0.0786
     13 C          61.5963   85.8665   10.3054 C.3     1  UNL1        0.0627
     14 C          64.4107   91.2898   15.1756 C.2     1  UNL1        0.2490
     15 O          63.6647   91.4779   16.4632 O.2     1  UNL1       -0.2699
     16 N          65.8475   91.7082   15.0732 N.am    1  UNL1       -0.2761
     17 C          66.5935   91.5201   13.7854 C.3     1  UNL1        0.0937
     18 C          68.0303   91.9385   13.6830 C.3     1  UNL1        0.0216
     19 C          68.7211   92.5452   14.8683 C.3     1  UNL1        0.0034
     20 C          70.1579   92.9637   14.7658 C.3     1  UNL1        0.0001
     21 C          67.9751   92.7334   16.1559 C.3     1  UNL1        0.0216
     22 C          66.5383   92.3149   16.2584 C.3     1  UNL1        0.0937
     23 C          63.1276   83.2609   12.8776 C.3     1  UNL1        0.0628
     24 C          63.9208   83.2572   14.1508 C.3     1  UNL1        0.0481
     25 C          64.3067   81.9563   14.7902 C.3     1  UNL1        0.1435
     26 O          63.8996   80.6592   14.1563 O.3     1  UNL1       -0.3537
     27 C          63.1065   80.6629   12.8831 C.3     1  UNL1        0.1435
     28 C          62.7205   81.9638   12.2438 C.3     1  UNL1        0.0481
     29 S          61.0038   89.0585    9.3407 S.O2    1  UNL1        0.0660
     30 O          59.8748   88.1205    9.6499 O.2     1  UNL1       -0.1521
     31 O          62.1327   89.9964    9.0314 O.2     1  UNL1       -0.1521
     32 C          59.3275   88.6052    7.4081 C.3     1  UNL1        0.0294
     33 C          60.2793   89.5256    8.1131 C.3     1  UNL1        0.1752
@<TRIPOS>BOND
     1    32    33    1
     2    33    29    1
     3    29    30    2
     4    29    31    2
     5    29     1    1
     6     1     2   ar
     7     2     3   ar
     8     3     4   ar
     9     4     5   ar
    10     5     6   ar
    11     6    14    1
    12    14    15    2
    13    14    16   am
    14    16    17    1
    15    17    18    1
    16    18    19    1
    17    19    20    1
    18    19    21    1
    19    21    22    1
    20     6     7   ar
    21     7     8   ar
    22     8     9   ar
    23     3    10    1
    24    10    11    1
    25    11    23    1
    26    23    24    1
    27    24    25    1
    28    25    26    1
    29    26    27    1
    30    27    28    1
    31    11    12    1
    32    12    13    1
    33     9     1   ar
    34    28    23    1
    35    13     2    1
    36     9     4   ar
    37    22    16    1
@<TRIPOS>MOLECULE
*****
 33 37 0 0 0
SMALL
GASTEIGER

@<TRIPOS>ATOM
      1 N          63.8087   87.1393   13.9262 N.ar    1  UNL1       -0.2172
      2 C          62.9052   87.1200   12.7290 C.ar    1  UNL1        0.0586
      3 C          62.9344   88.4833   12.1042 C.ar    1  UNL1        0.0088
      4 C          63.8560   89.3453   12.9152 C.ar    1  UNL1        0.0161
      5 C          64.2730   90.7792   12.7737 C.ar    1  UNL1        0.0058
      6 C          65.2303   91.3824   13.7584 C.ar    1  UNL1        0.0537
      7 C          65.7707   90.5518   14.8844 C.ar    1  UNL1        0.0061
      8 C          65.3537   89.1179   15.0259 C.ar    1  UNL1        0.0191
      9 C          64.3964   88.5146   14.0412 C.ar    1  UNL1        0.0815
     10 C          62.1180   88.7638   10.8775 C.3     1  UNL1        0.1003
     11 N          61.2724   87.6808   10.2756 N.3     1  UNL1       -0.2697
     12 C          61.2432   86.3175   10.9004 C.3     1  UNL1        0.0786
     13 C          62.0595   86.0371   12.1271 C.3     1  UNL1        0.0627
     14 C          65.6473   92.8164   13.6170 C.2     1  UNL1        0.2490
     15 O          65.7005   93.7046   14.8245 O.2     1  UNL1       -0.2699
     16 N          66.0111   93.3621   12.2679 N.am    1  UNL1       -0.2761
     17 C          65.9579   92.4738   11.0603 C.3     1  UNL1        0.0937
     18 C          66.3217   93.0196    9.7113 C.3     1  UNL1        0.0216
     19 C          66.7388   94.4535    9.5699 C.3     1  UNL1        0.0034
     20 C          67.1026   94.9992    8.2209 C.3     1  UNL1        0.0001
     21 C          66.7919   95.3417   10.7775 C.3     1  UNL1        0.0216
     22 C          66.4281   94.7960   12.1265 C.3     1  UNL1        0.0937
     23 C          60.4560   87.9613    9.0488 C.3     1  UNL1        0.0628
     24 C          59.7381   86.8425    8.3538 C.3     1  UNL1        0.0481
     25 C          58.9217   87.1230    7.1270 C.3     1  UNL1        0.1435
     26 O          58.8232   88.5222    6.5954 O.3     1  UNL1       -0.3537
     27 C          59.5412   89.6409    7.2904 C.3     1  UNL1        0.1435
     28 C          60.3575   89.3605    8.5171 C.3     1  UNL1        0.0481
     29 S          64.0775   85.9859   14.8467 S.O2    1  UNL1        0.0660
     30 O          63.3187   86.6805   15.9385 O.2     1  UNL1       -0.1521
     31 O          64.8362   85.2914   13.7550 O.2     1  UNL1       -0.1521
     32 C          64.0836   83.4290   15.3078 C.3     1  UNL1        0.0294
     33 C          64.3462   84.8325   15.7673 C.3     1  UNL1        0.1752
@<TRIPOS>BOND
     1    32    33    1
     2    33    29    1
     3    29    30    2
     4    29    31    2
     5    29     1    1
     6     1     2   ar
     7     2     3   ar
     8     3     4   ar
     9     4     5   ar
    10     5     6   ar
    11     6    14    1
    12    14    15    2
    13    14    16   am
    14    16    17    1
    15    17    18    1
    16    18    19    1
    17    19    20    1
    18    19    21    1
    19    21    22    1
    20     6     7   ar
    21     7     8   ar
    22     8     9   ar
    23     3    10    1
    24    10    11    1
    25    11    23    1
    26    23    24    1
    27    24    25    1
    28    25    26    1
    29    26    27    1
    30    27    28    1
    31    11    12    1
    32    12    13    1
    33     9     1   ar
    34    28    23    1
    35    13     2    1
    36     9     4   ar
    37    22    16    1
@<TRIPOS>MOLECULE
*****
 33 37 0 0 0
SMALL
GASTEIGER

@<TRIPOS>ATOM
      1 N          61.2397   88.0859    9.5719 N.ar    1  UNL1       -0.2172
      2 C          61.5870   86.8153   10.2894 C.ar    1  UNL1        0.0586
      3 C          62.5594   87.1505   11.3813 C.ar    1  UNL1        0.0088
      4 C          62.8130   88.6283   11.3386 C.ar    1  UNL1        0.0161
      5 C          63.6812   89.5222   12.1735 C.ar    1  UNL1        0.0058
      6 C          63.7338   90.9942   11.8901 C.ar    1  UNL1        0.0537
      7 C          62.9182   91.5724   10.7719 C.ar    1  UNL1        0.0061
      8 C          62.0500   90.6785    9.9370 C.ar    1  UNL1        0.0191
      9 C          61.9974   89.2065   10.2203 C.ar    1  UNL1        0.0815
     10 C          63.0882   86.0668   12.2733 C.3     1  UNL1        0.1003
     11 N          62.6447   84.6478   12.0735 N.3     1  UNL1       -0.2697
     12 C          61.6724   84.3126   10.9817 C.3     1  UNL1        0.0786
     13 C          61.1436   85.3963   10.0896 C.3     1  UNL1        0.0627
     14 C          64.6020   91.8882   12.7251 C.2     1  UNL1        0.2490
     15 O          64.8094   91.5867   14.1797 O.2     1  UNL1       -0.2699
     16 N          65.2628   93.0837   12.1053 N.am    1  UNL1       -0.2761
     17 C          65.0554   93.3852   10.6506 C.3     1  UNL1        0.0937
     18 C          65.7162   94.5807   10.0308 C.3     1  UNL1        0.0216
     19 C          66.5844   95.4747   10.8657 C.3     1  UNL1        0.0034
     20 C          67.2452   96.6702   10.2459 C.3     1  UNL1        0.0001
     21 C          66.7918   95.1732   12.3203 C.3     1  UNL1        0.0216
     22 C          66.1310   93.9777   12.9401 C.3     1  UNL1        0.0937
     23 C          63.1736   83.5641   12.9657 C.3     1  UNL1        0.0628
     24 C          63.0808   82.1292   12.5385 C.3     1  UNL1        0.0481
     25 C          63.6097   81.0454   13.4306 C.3     1  UNL1        0.1435
     26 O          64.2314   81.3966   14.7498 O.3     1  UNL1       -0.3537
     27 C          64.3242   82.8315   15.1769 C.3     1  UNL1        0.1435
     28 C          63.7953   83.9152   14.2848 C.3     1  UNL1        0.0481
     29 S          60.2997   88.2137    8.4100 S.O2    1  UNL1        0.0660
     30 O          59.6803   89.4237    9.0441 O.2     1  UNL1       -0.1521
     31 O          60.9191   87.0037    7.7758 O.2     1  UNL1       -0.1521
     32 C          59.3336   89.6049    6.4398 C.3     1  UNL1        0.0294
     33 C          59.3597   88.3415    7.2480 C.3     1  UNL1        0.1752
@<TRIPOS>BOND
     1    32    33    1
     2    33    29    1
     3    29    30    2
     4    29    31    2
     5    29     1    1
     6     1     2   ar
     7     2     3   ar
     8     3     4   ar
     9     4     5   ar
    10     5     6   ar
    11     6    14    1
    12    14    15    2
    13    14    16   am
    14    16    17    1
    15    17    18    1
    16    18    19    1
    17    19    20    1
    18    19    21    1
    19    21    22    1
    20     6     7   ar
    21     7     8   ar
    22     8     9   ar
    23     3    10    1
    24    10    11    1
    25    11    23    1
    26    23    24    1
    27    24    25    1
    28    25    26    1
    29    26    27    1
    30    27    28    1
    31    11    12    1
    32    12    13    1
    33     9     1   ar
    34    28    23    1
    35    13     2    1
    36     9     4   ar
    37    22    16    1
@<TRIPOS>MOLECULE
*****
 33 37 0 0 0
SMALL
GASTEIGER

@<TRIPOS>ATOM
      1 N          63.4378   85.4441   12.8777 N.ar    1  UNL1       -0.2172
      2 C          62.6203   85.8664   11.6931 C.ar    1  UNL1        0.0586
      3 C          62.4774   87.3589   11.7369 C.ar    1  UNL1        0.0088
      4 C          63.2066   87.8590   12.9486 C.ar    1  UNL1        0.0161
      5 C          63.4067   89.2391   13.5011 C.ar    1  UNL1        0.0058
      6 C          64.2004   89.4358   14.7585 C.ar    1  UNL1        0.0537
      7 C          64.7940   88.2523   15.4636 C.ar    1  UNL1        0.0061
      8 C          64.5938   86.8722   14.9112 C.ar    1  UNL1        0.0191
      9 C          63.8001   86.6756   13.6537 C.ar    1  UNL1        0.0815
     10 C          61.7018   88.0698   10.6678 C.3     1  UNL1        0.1003
     11 N          61.0691   87.2881    9.5548 N.3     1  UNL1       -0.2697
     12 C          61.2120   85.7956    9.5109 C.3     1  UNL1        0.0786
     13 C          61.9876   85.0847   10.5801 C.3     1  UNL1        0.0627
     14 C          64.4006   90.8159   15.3110 C.2     1  UNL1        0.2490
     15 O          63.2423   91.5613   15.9049 O.2     1  UNL1       -0.2699
     16 N          65.7591   91.4506   15.2696 N.am    1  UNL1       -0.2761
     17 C          66.9174   90.7051   14.6757 C.3     1  UNL1        0.0937
     18 C          68.2759   91.3397   14.6343 C.3     1  UNL1        0.0216
     19 C          68.4761   92.7199   15.1868 C.3     1  UNL1        0.0034
     20 C          69.8345   93.3546   15.1453 C.3     1  UNL1        0.0001
     21 C          67.3178   93.4653   15.7807 C.3     1  UNL1        0.0216
     22 C          65.9593   92.8306   15.8221 C.3     1  UNL1        0.0937
     23 C          60.2934   87.9991    8.4856 C.3     1  UNL1        0.0628
     24 C          59.3171   87.2398    7.6369 C.3     1  UNL1        0.0481
     25 C          58.5414   87.9508    6.5678 C.3     1  UNL1        0.1435
     26 O          58.7422   89.4208    6.3474 O.3     1  UNL1       -0.3537
     27 C          59.7185   90.1800    7.1961 C.3     1  UNL1        0.1435
     28 C          60.4942   89.4692    8.2653 C.3     1  UNL1        0.0481
     29 S          63.8250   84.0372   13.2253 S.O2    1  UNL1        0.0660
     30 O          64.7711   84.0100   12.0617 O.2     1  UNL1       -0.1521
     31 O          62.8789   84.0644   14.3889 O.2     1  UNL1       -0.1521
     32 C          63.2212   81.5167   13.4067 C.3     1  UNL1        0.0294
     33 C          64.2122   82.6303   13.5729 C.3     1  UNL1        0.1752
@<TRIPOS>BOND
     1    32    33    1
     2    33    29    1
     3    29    30    2
     4    29    31    2
     5    29     1    1
     6     1     2   ar
     7     2     3   ar
     8     3     4   ar
     9     4     5   ar
    10     5     6   ar
    11     6    14    1
    12    14    15    2
    13    14    16   am
    14    16    17    1
    15    17    18    1
    16    18    19    1
    17    19    20    1
    18    19    21    1
    19    21    22    1
    20     6     7   ar
    21     7     8   ar
    22     8     9   ar
    23     3    10    1
    24    10    11    1
    25    11    23    1
    26    23    24    1
    27    24    25    1
    28    25    26    1
    29    26    27    1
    30    27    28    1
    31    11    12    1
    32    12    13    1
    33     9     1   ar
    34    28    23    1
    35    13     2    1
    36     9     4   ar
    37    22    16    1
