@<TRIPOS>MOLECULE
*****
 34 38 0 0 0
SMALL
GASTEIGER

@<TRIPOS>ATOM
      1 N          62.9218   90.1193   13.0471 N.3     1  UNL1       -0.2679
      2 C          63.8943   91.1051   12.4706 C.3     1  UNL1        0.0978
      3 C          63.9050   91.3726   10.9947 C.3     1  UNL1        0.0224
      4 C          64.8776   92.3584   10.4182 C.3     1  UNL1        0.0065
      5 C          65.8394   93.0767   11.3176 C.3     1  UNL1        0.0277
      6 C          65.8287   92.8092   12.7935 C.ar    1  UNL1       -0.0073
      7 C          66.7906   93.5275   13.6929 C.ar    1  UNL1       -0.0015
      8 C          66.7799   93.2600   15.1688 C.ar    1  UNL1        0.0203
      9 C          65.8073   92.2742   15.7453 C.ar    1  UNL1        0.0985
     10 N          64.8455   91.5559   14.8460 N.ar    1  UNL1       -0.2471
     11 C          64.8562   91.8234   13.3700 C.ar    1  UNL1        0.0695
     12 C          63.3448   89.2158   14.1672 C.3     1  UNL1        0.0738
     13 C          64.2179   88.0291   13.8846 C.3     1  UNL1        0.0347
     14 C          64.2507   86.8767   14.8442 C.3     1  UNL1        0.0736
     15 N          62.5600   82.8876   13.6284 N.3     1  UNL1       -0.2703
     16 C          62.8003   83.1900   15.0777 C.3     1  UNL1        0.0897
     17 C          63.3639   84.5198   15.4831 C.3     1  UNL1        0.0897
     18 N          63.6872   85.5471   14.4390 N.3     1  UNL1       -0.2703
     19 C          63.4468   85.2446   12.9895 C.3     1  UNL1        0.0897
     20 C          62.8833   83.9149   12.5842 C.3     1  UNL1        0.0897
     21 C          61.0019   80.8642   14.1060 C.3     1  UNL1        0.0188
     22 C          61.9964   81.5579   13.2230 C.3     1  UNL1        0.0722
     23 C          61.5262   90.0371   12.5036 C.3     1  UNL1        0.0886
     24 C          61.2350   89.1735   11.3121 C.3     1  UNL1        0.0748
     25 C          62.1672   88.0555   10.9504 C.3     1  UNL1        0.0432
     26 C          61.8760   87.1919    9.7589 C.ar    1  UNL1       -0.0234
     27 C          62.8082   86.0739    9.3972 C.ar    1  UNL1       -0.0045
     28 C          62.5170   85.2104    8.2058 C.ar    1  UNL1       -0.0003
     29 C          61.2936   85.4650    7.3760 C.ar    1  UNL1       -0.0003
     30 C          60.3614   86.5830    7.7377 C.ar    1  UNL1       -0.0032
     31 C          60.6526   87.4465    8.9292 C.ar    1  UNL1       -0.0103
     32 C          59.7204   88.5647    9.2909 C.3     1  UNL1        0.0953
     33 N          60.0116   89.4281   10.4824 N.3     1  UNL1       -0.2934
     34 H          59.2097   89.3473   11.1076 H       1  UNL1        0.1236
@<TRIPOS>BOND
     1    21    22    1
     2    22    15    1
     3    15    16    1
     4    16    17    1
     5    17    18    1
     6    18    14    1
     7    14    13    1
     8    13    12    1
     9    12     1    1
    10     1    23    1
    11    24    23    1
    12    24    25    1
    13    25    26    1
    14    26    27   ar
    15    27    28   ar
    16    28    29   ar
    17    29    30   ar
    18    30    31   ar
    19    31    32    1
    20    32    33    1
    21     2     1    1
    22     2     3    1
    23     3     4    1
    24     4     5    1
    25     5     6    1
    26     6     7   ar
    27     7     8   ar
    28     8     9   ar
    29     9    10   ar
    30    10    11   ar
    31    18    19    1
    32    19    20    1
    33    20    15    1
    34    33    24    1
    35    11     2    1
    36    31    26   ar
    37    11     6   ar
    38    33    34    1
@<TRIPOS>MOLECULE
*****
 34 38 0 0 0
SMALL
GASTEIGER

@<TRIPOS>ATOM
      1 N          63.1562   89.0462   13.2091 N.3     1  UNL1       -0.2679
      2 C          62.4308   89.1067   11.8975 C.3     1  UNL1        0.0978
      3 C          62.0178   90.4319   11.3292 C.3     1  UNL1        0.0224
      4 C          61.2925   90.4924   10.0177 C.3     1  UNL1        0.0065
      5 C          60.9801   89.2275    9.2744 C.3     1  UNL1        0.0277
      6 C          61.3930   87.9022    9.8427 C.ar    1  UNL1       -0.0073
      7 C          61.0806   86.6373    9.0995 C.ar    1  UNL1       -0.0015
      8 C          61.4936   85.3120    9.6678 C.ar    1  UNL1        0.0203
      9 C          62.2189   85.2515   10.9794 C.ar    1  UNL1        0.0985
     10 N          62.5313   86.5164   11.7226 N.ar    1  UNL1       -0.2471
     11 C          62.1184   87.8418   11.1543 C.ar    1  UNL1        0.0695
     12 C          64.0908   87.9090   13.4976 C.3     1  UNL1        0.0738
     13 C          64.2605   87.4161   14.9041 C.3     1  UNL1        0.0347
     14 C          64.8641   86.0666   15.1581 C.3     1  UNL1        0.0736
     15 N          62.6979   82.3489   13.8405 N.3     1  UNL1       -0.2703
     16 C          63.9935   82.7326   13.1892 C.3     1  UNL1        0.0897
     17 C          64.7156   83.9719   13.6284 C.3     1  UNL1        0.0897
     18 N          64.1421   84.8274   14.7189 N.3     1  UNL1       -0.2703
     19 C          62.8465   84.4436   15.3702 C.3     1  UNL1        0.0897
     20 C          62.1244   83.2044   14.9310 C.3     1  UNL1        0.0897
     21 C          60.7050   80.7000   14.0849 C.3     1  UNL1        0.0188
     22 C          61.9758   81.1096   13.4013 C.3     1  UNL1        0.0722
     23 C          62.9469   90.1230   14.2322 C.3     1  UNL1        0.0886
     24 C          64.1201   90.8952   14.7590 C.3     1  UNL1        0.0748
     25 C          65.4018   90.9358   13.9809 C.3     1  UNL1        0.0432
     26 C          66.5749   91.7080   14.5077 C.ar    1  UNL1       -0.0234
     27 C          67.8567   91.7486   13.7296 C.ar    1  UNL1       -0.0045
     28 C          69.0297   92.5208   14.2564 C.ar    1  UNL1       -0.0003
     29 C          68.9210   93.2525   15.5613 C.ar    1  UNL1       -0.0003
     30 C          67.6393   93.2119   16.3394 C.ar    1  UNL1       -0.0032
     31 C          66.4663   92.4397   15.8126 C.ar    1  UNL1       -0.0103
     32 C          65.1845   92.3992   16.5907 C.3     1  UNL1        0.0953
     33 N          64.0114   91.6269   16.0639 N.3     1  UNL1       -0.2934
     34 H          63.2422   92.2897   15.9667 H       1  UNL1        0.1236
@<TRIPOS>BOND
     1    21    22    1
     2    22    15    1
     3    15    16    1
     4    16    17    1
     5    17    18    1
     6    18    14    1
     7    14    13    1
     8    13    12    1
     9    12     1    1
    10     1    23    1
    11    24    23    1
    12    24    25    1
    13    25    26    1
    14    26    27   ar
    15    27    28   ar
    16    28    29   ar
    17    29    30   ar
    18    30    31   ar
    19    31    32    1
    20    32    33    1
    21     2     1    1
    22     2     3    1
    23     3     4    1
    24     4     5    1
    25     5     6    1
    26     6     7   ar
    27     7     8   ar
    28     8     9   ar
    29     9    10   ar
    30    10    11   ar
    31    18    19    1
    32    19    20    1
    33    20    15    1
    34    33    24    1
    35    11     2    1
    36    31    26   ar
    37    11     6   ar
    38    33    34    1
@<TRIPOS>MOLECULE
*****
 34 38 0 0 0
SMALL
GASTEIGER

@<TRIPOS>ATOM
      1 N          63.7722   89.9511   13.6156 N.3     1  UNL1       -0.2679
      2 C          64.7035   91.0883   13.9149 C.3     1  UNL1        0.0978
      3 C          65.2138   91.2923   15.3106 C.3     1  UNL1        0.0224
      4 C          66.1450   92.4295   15.6099 C.3     1  UNL1        0.0065
      5 C          66.5660   93.3626   14.5136 C.3     1  UNL1        0.0277
      6 C          66.0558   93.1586   13.1179 C.ar    1  UNL1       -0.0073
      7 C          66.4768   94.0917   12.0215 C.ar    1  UNL1       -0.0015
      8 C          65.9665   93.8877   10.6258 C.ar    1  UNL1        0.0203
      9 C          65.0352   92.7505   10.3265 C.ar    1  UNL1        0.0985
     10 N          64.6142   91.8174   11.4228 N.ar    1  UNL1       -0.2471
     11 C          65.1245   92.0214   12.8186 C.ar    1  UNL1        0.0695
     12 C          64.2839   88.5411   13.6222 C.3     1  UNL1        0.0738
     13 C          64.2791   87.7474   14.8950 C.3     1  UNL1        0.0347
     14 C          64.9514   86.4075   14.9460 C.3     1  UNL1        0.0736
     15 N          62.5476   82.6582   14.3026 N.3     1  UNL1       -0.2703
     16 C          62.2010   83.5874   15.4279 C.3     1  UNL1        0.0897
     17 C          63.0023   84.8372   15.6424 C.3     1  UNL1        0.0897
     18 N          64.1501   85.1578   14.7315 N.3     1  UNL1       -0.2703
     19 C          64.4968   84.2284   13.6062 C.3     1  UNL1        0.0897
     20 C          63.6955   82.9787   13.3918 C.3     1  UNL1        0.0897
     21 C          62.3425   80.2550   13.3369 C.3     1  UNL1        0.0188
     22 C          61.7464   81.4083   14.0881 C.3     1  UNL1        0.0722
     23 C          62.3294   90.2239   13.3096 C.3     1  UNL1        0.0886
     24 C          61.7143   89.6846   12.0523 C.3     1  UNL1        0.0748
     25 C          62.1774   88.3716   11.4942 C.3     1  UNL1        0.0432
     26 C          61.5623   87.8322   10.2369 C.ar    1  UNL1       -0.0234
     27 C          62.0254   86.5192    9.6788 C.ar    1  UNL1       -0.0045
     28 C          61.4103   85.9799    8.4215 C.ar    1  UNL1       -0.0003
     29 C          60.3321   86.7536    7.7224 C.ar    1  UNL1       -0.0003
     30 C          59.8689   88.0666    8.2805 C.ar    1  UNL1       -0.0032
     31 C          60.4840   88.6059    9.5377 C.ar    1  UNL1       -0.0103
     32 C          60.0209   89.9190   10.0959 C.3     1  UNL1        0.0953
     33 N          60.6360   90.4583   11.3531 N.3     1  UNL1       -0.2934
     34 H          59.8773   90.5782   12.0242 H       1  UNL1        0.1236
@<TRIPOS>BOND
     1    21    22    1
     2    22    15    1
     3    15    16    1
     4    16    17    1
     5    17    18    1
     6    18    14    1
     7    14    13    1
     8    13    12    1
     9    12     1    1
    10     1    23    1
    11    24    23    1
    12    24    25    1
    13    25    26    1
    14    26    27   ar
    15    27    28   ar
    16    28    29   ar
    17    29    30   ar
    18    30    31   ar
    19    31    32    1
    20    32    33    1
    21     2     1    1
    22     2     3    1
    23     3     4    1
    24     4     5    1
    25     5     6    1
    26     6     7   ar
    27     7     8   ar
    28     8     9   ar
    29     9    10   ar
    30    10    11   ar
    31    18    19    1
    32    19    20    1
    33    20    15    1
    34    33    24    1
    35    11     2    1
    36    31    26   ar
    37    11     6   ar
    38    33    34    1
@<TRIPOS>MOLECULE
*****
 34 38 0 0 0
SMALL
GASTEIGER

@<TRIPOS>ATOM
      1 N          64.3018   90.2440   14.8882 N.3     1  UNL1       -0.2679
      2 C          65.2153   91.4193   14.7034 C.3     1  UNL1        0.0978
      3 C          66.0196   91.9332   15.8605 C.3     1  UNL1        0.0224
      4 C          66.9332   93.1085   15.6758 C.3     1  UNL1        0.0065
      5 C          67.0424   93.7698   14.3339 C.3     1  UNL1        0.0277
      6 C          66.2381   93.2559   13.1768 C.ar    1  UNL1       -0.0073
      7 C          66.3473   93.9173   11.8349 C.ar    1  UNL1       -0.0015
      8 C          65.5430   93.4034   10.6778 C.ar    1  UNL1        0.0203
      9 C          64.6294   92.2281   10.8625 C.ar    1  UNL1        0.0985
     10 N          64.5202   91.5667   12.2044 N.ar    1  UNL1       -0.2471
     11 C          65.3245   92.0806   13.3616 C.ar    1  UNL1        0.0695
     12 C          63.3647   90.1991   16.0586 C.3     1  UNL1        0.0738
     13 C          62.5628   88.9609   16.3304 C.3     1  UNL1        0.0347
     14 C          63.2071   87.7812   16.9960 C.3     1  UNL1        0.0736
     15 N          63.5897   83.8812   14.7840 N.3     1  UNL1       -0.2703
     16 C          64.6057   84.9647   14.5750 C.3     1  UNL1        0.0897
     17 C          64.4782   86.2647   15.3124 C.3     1  UNL1        0.0897
     18 N          63.3346   86.4812   16.2587 N.3     1  UNL1       -0.2703
     19 C          62.3186   85.3976   16.4676 C.3     1  UNL1        0.0897
     20 C          62.4462   84.0976   15.7303 C.3     1  UNL1        0.0897
     21 C          63.7696   82.5711   12.5475 C.3     1  UNL1        0.0188
     22 C          63.7172   82.5811   14.0466 C.3     1  UNL1        0.0722
     23 C          64.3253   89.1135   13.9026 C.3     1  UNL1        0.0886
     24 C          63.2132   88.9631   12.9072 C.3     1  UNL1        0.0748
     25 C          63.1682   87.7628   12.0087 C.3     1  UNL1        0.0432
     26 C          62.0562   87.6124   11.0132 C.ar    1  UNL1       -0.0234
     27 C          62.0112   86.4121   10.1147 C.ar    1  UNL1       -0.0045
     28 C          60.8991   86.2617    9.1194 C.ar    1  UNL1       -0.0003
     29 C          59.8321   87.3115    9.0226 C.ar    1  UNL1       -0.0003
     30 C          59.8771   88.5118    9.9211 C.ar    1  UNL1       -0.0032
     31 C          60.9892   88.6622   10.9164 C.ar    1  UNL1       -0.0103
     32 C          61.0342   89.8625   11.8150 C.3     1  UNL1        0.0953
     33 N          62.1462   90.0129   12.8104 N.3     1  UNL1       -0.2934
     34 H          61.7111   90.0762   13.7307 H       1  UNL1        0.1236
@<TRIPOS>BOND
     1    21    22    1
     2    22    15    1
     3    15    16    1
     4    16    17    1
     5    17    18    1
     6    18    14    1
     7    14    13    1
     8    13    12    1
     9    12     1    1
    10     1    23    1
    11    24    23    1
    12    24    25    1
    13    25    26    1
    14    26    27   ar
    15    27    28   ar
    16    28    29   ar
    17    29    30   ar
    18    30    31   ar
    19    31    32    1
    20    32    33    1
    21     2     1    1
    22     2     3    1
    23     3     4    1
    24     4     5    1
    25     5     6    1
    26     6     7   ar
    27     7     8   ar
    28     8     9   ar
    29     9    10   ar
    30    10    11   ar
    31    18    19    1
    32    19    20    1
    33    20    15    1
    34    33    24    1
    35    11     2    1
    36    31    26   ar
    37    11     6   ar
    38    33    34    1
@<TRIPOS>MOLECULE
*****
 34 38 0 0 0
SMALL
GASTEIGER

@<TRIPOS>ATOM
      1 N          63.4741   88.2794   13.3345 N.3     1  UNL1       -0.2679
      2 C          62.8191   87.4727   12.2528 C.3     1  UNL1        0.0978
      3 C          63.0531   85.9931   12.1745 C.3     1  UNL1        0.0224
      4 C          62.3981   85.1864   11.0927 C.3     1  UNL1        0.0065
      5 C          61.5091   85.8592   10.0893 C.3     1  UNL1        0.0277
      6 C          61.2751   87.3388   10.1676 C.ar    1  UNL1       -0.0073
      7 C          60.3861   88.0117    9.1641 C.ar    1  UNL1       -0.0015
      8 C          60.1521   89.4912    9.2424 C.ar    1  UNL1        0.0203
      9 C          60.8071   90.2979   10.3241 C.ar    1  UNL1        0.0985
     10 N          61.6961   89.6251   11.3276 N.ar    1  UNL1       -0.2471
     11 C          61.9301   88.1455   11.2493 C.ar    1  UNL1        0.0695
     12 C          64.3015   87.5964   14.3829 C.3     1  UNL1        0.0738
     13 C          63.6542   87.0936   15.6392 C.3     1  UNL1        0.0347
     14 C          63.9644   85.7152   16.1428 C.3     1  UNL1        0.0736
     15 N          63.1995   82.1376   13.5226 N.3     1  UNL1       -0.2703
     16 C          64.5420   82.8063   13.5056 C.3     1  UNL1        0.0897
     17 C          64.7970   83.9989   14.3790 C.3     1  UNL1        0.0897
     18 N          63.7094   84.5227   15.2694 N.3     1  UNL1       -0.2703
     19 C          62.3668   83.8539   15.2863 C.3     1  UNL1        0.0897
     20 C          62.1119   82.6614   14.4129 C.3     1  UNL1        0.0897
     21 C          62.8987   81.1034   11.1582 C.3     1  UNL1        0.0188
     22 C          62.9445   80.9450   12.6491 C.3     1  UNL1        0.0722
     23 C          63.3018   89.7690   13.3679 C.3     1  UNL1        0.0886
     24 C          64.2809   90.6206   14.1205 C.3     1  UNL1        0.0748
     25 C          65.6697   90.8152   13.5885 C.3     1  UNL1        0.0432
     26 C          66.6488   91.6668   14.3411 C.ar    1  UNL1       -0.0234
     27 C          68.0376   91.8614   13.8090 C.ar    1  UNL1       -0.0045
     28 C          69.0166   92.7130   14.5616 C.ar    1  UNL1       -0.0003
     29 C          68.6067   93.3699   15.8462 C.ar    1  UNL1       -0.0003
     30 C          67.2178   93.1753   16.3783 C.ar    1  UNL1       -0.0032
     31 C          66.2389   92.3238   15.6257 C.ar    1  UNL1       -0.0103
     32 C          64.8499   92.1292   16.1578 C.3     1  UNL1        0.0953
     33 N          63.8710   91.2776   15.4052 N.3     1  UNL1       -0.2934
     34 H          63.0694   91.8706   15.1900 H       1  UNL1        0.1236
@<TRIPOS>BOND
     1    21    22    1
     2    22    15    1
     3    15    16    1
     4    16    17    1
     5    17    18    1
     6    18    14    1
     7    14    13    1
     8    13    12    1
     9    12     1    1
    10     1    23    1
    11    24    23    1
    12    24    25    1
    13    25    26    1
    14    26    27   ar
    15    27    28   ar
    16    28    29   ar
    17    29    30   ar
    18    30    31   ar
    19    31    32    1
    20    32    33    1
    21     2     1    1
    22     2     3    1
    23     3     4    1
    24     4     5    1
    25     5     6    1
    26     6     7   ar
    27     7     8   ar
    28     8     9   ar
    29     9    10   ar
    30    10    11   ar
    31    18    19    1
    32    19    20    1
    33    20    15    1
    34    33    24    1
    35    11     2    1
    36    31    26   ar
    37    11     6   ar
    38    33    34    1
@<TRIPOS>MOLECULE
*****
 34 38 0 0 0
SMALL
GASTEIGER

@<TRIPOS>ATOM
      1 N          60.8886   87.4839   10.1456 N.3     1  UNL1       -0.2679
      2 C          61.7972   86.3429    9.7954 C.3     1  UNL1        0.0978
      3 C          62.1459   86.0747    8.3614 C.3     1  UNL1        0.0224
      4 C          63.0545   84.9337    8.0113 C.3     1  UNL1        0.0065
      5 C          63.6143   84.0609    9.0951 C.3     1  UNL1        0.0277
      6 C          63.2656   84.3291   10.5291 C.ar    1  UNL1       -0.0073
      7 C          63.8255   83.4563   11.6131 C.ar    1  UNL1       -0.0015
      8 C          63.4768   83.7245   13.0471 C.ar    1  UNL1        0.0203
      9 C          62.5682   84.8655   13.3972 C.ar    1  UNL1        0.0985
     10 N          62.0083   85.7383   12.3134 N.ar    1  UNL1       -0.2471
     11 C          62.3571   85.4701   10.8793 C.ar    1  UNL1        0.0695
     12 C          59.7456   87.8373    9.2409 C.3     1  UNL1        0.0738
     13 C          59.8794   88.9751    8.2727 C.3     1  UNL1        0.0347
     14 C          59.0825   88.9762    7.0019 C.3     1  UNL1        0.0736
     15 N          59.6673   92.2610    3.9823 N.3     1  UNL1       -0.2703
     16 C          58.2943   91.9589    4.5055 C.3     1  UNL1        0.0897
     17 C          58.0994   90.8640    5.5120 C.3     1  UNL1        0.0897
     18 N          59.2774   90.0711    5.9954 N.3     1  UNL1       -0.2703
     19 C          60.6504   90.3733    5.4722 C.3     1  UNL1        0.0897
     20 C          60.8453   91.4682    4.4657 C.3     1  UNL1        0.0897
     21 C          59.7992   93.0467    1.5094 C.3     1  UNL1        0.0188
     22 C          59.8623   93.3560    2.9758 C.3     1  UNL1        0.0722
     23 C          61.1232   88.2715   11.4004 C.3     1  UNL1        0.0886
     24 C          62.1552   89.3599   11.4209 C.3     1  UNL1        0.0748
     25 C          63.0134   89.5569   12.6353 C.3     1  UNL1        0.0432
     26 C          64.0455   90.6453   12.6558 C.ar    1  UNL1       -0.0234
     27 C          64.9036   90.8423   13.8702 C.ar    1  UNL1       -0.0045
     28 C          65.9356   91.9306   13.8906 C.ar    1  UNL1       -0.0003
     29 C          66.1095   92.8219   12.6968 C.ar    1  UNL1       -0.0003
     30 C          65.2513   92.6249   11.4824 C.ar    1  UNL1       -0.0032
     31 C          64.2193   91.5366   11.4619 C.ar    1  UNL1       -0.0103
     32 C          63.3611   91.3395   10.2475 C.3     1  UNL1        0.0953
     33 N          62.3291   90.2512   10.2270 N.3     1  UNL1       -0.2934
     34 H          62.5553   89.6457    9.4380 H       1  UNL1        0.1236
@<TRIPOS>BOND
     1    21    22    1
     2    22    15    1
     3    15    16    1
     4    16    17    1
     5    17    18    1
     6    18    14    1
     7    14    13    1
     8    13    12    1
     9    12     1    1
    10     1    23    1
    11    24    23    1
    12    24    25    1
    13    25    26    1
    14    26    27   ar
    15    27    28   ar
    16    28    29   ar
    17    29    30   ar
    18    30    31   ar
    19    31    32    1
    20    32    33    1
    21     2     1    1
    22     2     3    1
    23     3     4    1
    24     4     5    1
    25     5     6    1
    26     6     7   ar
    27     7     8   ar
    28     8     9   ar
    29     9    10   ar
    30    10    11   ar
    31    18    19    1
    32    19    20    1
    33    20    15    1
    34    33    24    1
    35    11     2    1
    36    31    26   ar
    37    11     6   ar
    38    33    34    1
@<TRIPOS>MOLECULE
*****
 34 38 0 0 0
SMALL
GASTEIGER

@<TRIPOS>ATOM
      1 N          62.4748   89.4311   12.5970 N.3     1  UNL1       -0.2679
      2 C          63.3858   90.2422   13.4700 C.3     1  UNL1        0.0978
      3 C          63.3806   90.0360   14.9557 C.3     1  UNL1        0.0224
      4 C          64.2916   90.8471   15.8287 C.3     1  UNL1        0.0065
      5 C          65.2078   91.8645   15.2160 C.3     1  UNL1        0.0277
      6 C          65.2130   92.0707   13.7303 C.ar    1  UNL1       -0.0073
      7 C          66.1293   93.0881   13.1175 C.ar    1  UNL1       -0.0015
      8 C          66.1345   93.2944   11.6318 C.ar    1  UNL1        0.0203
      9 C          65.2235   92.4832   10.7588 C.ar    1  UNL1        0.0985
     10 N          64.3073   91.4659   11.3715 N.ar    1  UNL1       -0.2471
     11 C          64.3020   91.2596   12.8573 C.ar    1  UNL1        0.0695
     12 C          61.0268   89.8028   12.4740 C.3     1  UNL1        0.0738
     13 C          60.1223   89.0095   11.5780 C.3     1  UNL1        0.0347
     14 C          60.1881   89.1958   10.0911 C.3     1  UNL1        0.0736
     15 N          60.7521   85.6335    7.4001 N.3     1  UNL1       -0.2703
     16 C          59.4356   86.3519    7.4273 C.3     1  UNL1        0.0897
     17 C          59.2476   87.5394    8.3243 C.3     1  UNL1        0.0897
     18 N          60.3760   88.0084    9.1941 N.3     1  UNL1       -0.2703
     19 C          61.6926   87.2900    9.1669 C.3     1  UNL1        0.0897
     20 C          61.8806   86.1026    8.2698 C.3     1  UNL1        0.0897
     21 C          62.1695   84.3373    5.6505 C.3     1  UNL1        0.0188
     22 C          60.9401   84.4460    6.5030 C.3     1  UNL1        0.0722
     23 C          63.0118   88.2483   11.8469 C.3     1  UNL1        0.0886
     24 C          63.1975   86.9360   12.5493 C.3     1  UNL1        0.0748
     25 C          62.7790   85.6609   11.8794 C.3     1  UNL1        0.0432
     26 C          62.9648   84.3486   12.5818 C.ar    1  UNL1       -0.0234
     27 C          62.5463   83.0734   11.9119 C.ar    1  UNL1       -0.0045
     28 C          62.7321   81.7612   12.6143 C.ar    1  UNL1       -0.0003
     29 C          63.3363   81.7241   13.9868 C.ar    1  UNL1       -0.0003
     30 C          63.7548   82.9992   14.6567 C.ar    1  UNL1       -0.0032
     31 C          63.5690   84.3115   13.9543 C.ar    1  UNL1       -0.0103
     32 C          63.9875   85.5867   14.6242 C.3     1  UNL1        0.0953
     33 N          63.8017   86.8989   13.9218 N.3     1  UNL1       -0.2934
     34 H          64.7246   87.3271   13.8488 H       1  UNL1        0.1236
@<TRIPOS>BOND
     1    21    22    1
     2    22    15    1
     3    15    16    1
     4    16    17    1
     5    17    18    1
     6    18    14    1
     7    14    13    1
     8    13    12    1
     9    12     1    1
    10     1    23    1
    11    24    23    1
    12    24    25    1
    13    25    26    1
    14    26    27   ar
    15    27    28   ar
    16    28    29   ar
    17    29    30   ar
    18    30    31   ar
    19    31    32    1
    20    32    33    1
    21     2     1    1
    22     2     3    1
    23     3     4    1
    24     4     5    1
    25     5     6    1
    26     6     7   ar
    27     7     8   ar
    28     8     9   ar
    29     9    10   ar
    30    10    11   ar
    31    18    19    1
    32    19    20    1
    33    20    15    1
    34    33    24    1
    35    11     2    1
    36    31    26   ar
    37    11     6   ar
    38    33    34    1
@<TRIPOS>MOLECULE
*****
 34 38 0 0 0
SMALL
GASTEIGER

@<TRIPOS>ATOM
      1 N          62.6913   89.9948   11.4503 N.3     1  UNL1       -0.2679
      2 C          63.3093   89.7265   12.7905 C.3     1  UNL1        0.0978
      3 C          63.6928   90.8701   13.6820 C.3     1  UNL1        0.0224
      4 C          64.3109   90.6019   15.0222 C.3     1  UNL1        0.0065
      5 C          64.5455   89.1899   15.4708 C.3     1  UNL1        0.0277
      6 C          64.1620   88.0462   14.5792 C.ar    1  UNL1       -0.0073
      7 C          64.3966   86.6342   15.0278 C.ar    1  UNL1       -0.0015
      8 C          64.0132   85.4905   14.1362 C.ar    1  UNL1        0.0203
      9 C          63.3951   85.7588   12.7961 C.ar    1  UNL1        0.0985
     10 N          63.1605   87.1708   12.3475 N.ar    1  UNL1       -0.2471
     11 C          63.5440   88.3145   13.2391 C.ar    1  UNL1        0.0695
     12 C          63.4755   90.7140   10.3932 C.3     1  UNL1        0.0738
     13 C          63.9698   92.1079   10.6440 C.3     1  UNL1        0.0347
     14 C          65.4327   92.4174   10.5266 C.3     1  UNL1        0.0736
     15 N          67.9684   92.7404   14.2301 N.3     1  UNL1       -0.2703
     16 C          68.3966   91.8473   13.1036 C.3     1  UNL1        0.0897
     17 C          67.5513   91.7397   11.8690 C.3     1  UNL1        0.0897
     18 N          66.2779   92.5251   11.7611 N.3     1  UNL1       -0.2703
     19 C          65.8498   93.4181   12.8877 C.3     1  UNL1        0.0897
     20 C          66.6950   93.5258   14.1222 C.3     1  UNL1        0.0897
     21 C          69.0669   94.1898   16.0855 C.3     1  UNL1        0.0188
     22 C          68.8136   92.8480   15.4647 C.3     1  UNL1        0.0722
     23 C          61.2890   89.5438   11.1673 C.3     1  UNL1        0.0886
     24 C          61.0335   88.5012   10.1196 C.3     1  UNL1        0.0748
     25 C          62.1361   87.5759    9.6977 C.3     1  UNL1        0.0432
     26 C          61.8806   86.5332    8.6499 C.ar    1  UNL1       -0.0234
     27 C          62.9832   85.6079    8.2281 C.ar    1  UNL1       -0.0045
     28 C          62.7277   84.5654    7.1804 C.ar    1  UNL1       -0.0003
     29 C          61.3695   84.4481    6.5546 C.ar    1  UNL1       -0.0003
     30 C          60.2669   85.3734    6.9765 C.ar    1  UNL1       -0.0032
     31 C          60.5224   86.4159    8.0241 C.ar    1  UNL1       -0.0103
     32 C          59.4198   87.3413    8.4461 C.3     1  UNL1        0.0953
     33 N          59.6753   88.3839    9.4938 N.3     1  UNL1       -0.2934
     34 H          59.0161   88.2073   10.2518 H       1  UNL1        0.1236
@<TRIPOS>BOND
     1    21    22    1
     2    22    15    1
     3    15    16    1
     4    16    17    1
     5    17    18    1
     6    18    14    1
     7    14    13    1
     8    13    12    1
     9    12     1    1
    10     1    23    1
    11    24    23    1
    12    24    25    1
    13    25    26    1
    14    26    27   ar
    15    27    28   ar
    16    28    29   ar
    17    29    30   ar
    18    30    31   ar
    19    31    32    1
    20    32    33    1
    21     2     1    1
    22     2     3    1
    23     3     4    1
    24     4     5    1
    25     5     6    1
    26     6     7   ar
    27     7     8   ar
    28     8     9   ar
    29     9    10   ar
    30    10    11   ar
    31    18    19    1
    32    19    20    1
    33    20    15    1
    34    33    24    1
    35    11     2    1
    36    31    26   ar
    37    11     6   ar
    38    33    34    1
@<TRIPOS>MOLECULE
*****
 34 38 0 0 0
SMALL
GASTEIGER

@<TRIPOS>ATOM
      1 N          63.4464   89.5949   13.3325 N.3     1  UNL1       -0.2679
      2 C          64.0986   90.7501   12.6324 C.3     1  UNL1        0.0978
      3 C          63.8212   91.0001   11.1797 C.3     1  UNL1        0.0224
      4 C          64.4734   92.1553   10.4796 C.3     1  UNL1        0.0065
      5 C          65.4030   93.0605   11.2322 C.3     1  UNL1        0.0277
      6 C          65.6803   92.8105   12.6849 C.ar    1  UNL1       -0.0073
      7 C          66.6099   93.7157   13.4377 C.ar    1  UNL1       -0.0015
      8 C          66.8873   93.4657   14.8904 C.ar    1  UNL1        0.0203
      9 C          66.2351   92.3105   15.5905 C.ar    1  UNL1        0.0985
     10 N          65.3055   91.4053   14.8379 N.ar    1  UNL1       -0.2471
     11 C          65.0281   91.6553   13.3851 C.ar    1  UNL1        0.0695
     12 C          61.9674   89.3794   13.2061 C.3     1  UNL1        0.0738
     13 C          61.2879   89.5964   11.8865 C.3     1  UNL1        0.0347
     14 C          60.2099   88.6565   11.4345 C.3     1  UNL1        0.0736
     15 N          60.9018   85.9798    7.8839 N.3     1  UNL1       -0.2703
     16 C          61.9445   86.0870    8.9568 C.3     1  UNL1        0.0897
     17 C          61.7139   86.9792   10.1404 C.3     1  UNL1        0.0897
     18 N          60.4405   87.7643   10.2510 N.3     1  UNL1       -0.2703
     19 C          59.3978   87.6570    9.1780 C.3     1  UNL1        0.0897
     20 C          59.6284   86.7648    7.9945 C.3     1  UNL1        0.0897
     21 C          62.5001   84.5314    6.4356 C.3     1  UNL1        0.0188
     22 C          61.1324   85.0876    6.7003 C.3     1  UNL1        0.0722
     23 C          64.2732   88.6551   14.1591 C.3     1  UNL1        0.0886
     24 C          63.8538   87.2230   14.3114 C.3     1  UNL1        0.0748
     25 C          63.6638   86.3639   13.0966 C.3     1  UNL1        0.0432
     26 C          63.2444   84.9317   13.2490 C.ar    1  UNL1       -0.0234
     27 C          63.0543   84.0726   12.0342 C.ar    1  UNL1       -0.0045
     28 C          62.6350   82.6405   12.1865 C.ar    1  UNL1       -0.0003
     29 C          62.4057   82.0675   13.5537 C.ar    1  UNL1       -0.0003
     30 C          62.5958   82.9267   14.7685 C.ar    1  UNL1       -0.0032
     31 C          63.0151   84.3587   14.6161 C.ar    1  UNL1       -0.0103
     32 C          63.2052   85.2179   15.8310 C.3     1  UNL1        0.0953
     33 N          63.6246   86.6500   15.6786 N.3     1  UNL1       -0.2934
     34 H          64.4987   86.7572   16.1931 H       1  UNL1        0.1236
@<TRIPOS>BOND
     1    21    22    1
     2    22    15    1
     3    15    16    1
     4    16    17    1
     5    17    18    1
     6    18    14    1
     7    14    13    1
     8    13    12    1
     9    12     1    1
    10     1    23    1
    11    24    23    1
    12    24    25    1
    13    25    26    1
    14    26    27   ar
    15    27    28   ar
    16    28    29   ar
    17    29    30   ar
    18    30    31   ar
    19    31    32    1
    20    32    33    1
    21     2     1    1
    22     2     3    1
    23     3     4    1
    24     4     5    1
    25     5     6    1
    26     6     7   ar
    27     7     8   ar
    28     8     9   ar
    29     9    10   ar
    30    10    11   ar
    31    18    19    1
    32    19    20    1
    33    20    15    1
    34    33    24    1
    35    11     2    1
    36    31    26   ar
    37    11     6   ar
    38    33    34    1
