@<TRIPOS>MOLECULE
*****
 35 39 0 0 0
SMALL
GASTEIGER

@<TRIPOS>ATOM
      1 N          62.6143   86.4501   12.3530 N.ar    1  UNL1       -0.2342
      2 N          63.5201   87.5643   12.7864 N.ar    1  UNL1       -0.1679
      3 C          63.2130   88.7660   11.9429 C.ar    1  UNL1        0.1065
      4 C          62.1174   88.3945   10.9880 C.ar    1  UNL1        0.0860
      5 C          61.4090   89.1746    9.9206 C.ar    1  UNL1        0.1316
      6 N          61.7791   90.6059    9.6671 N.pl3   1  UNL1       -0.3425
      7 N          60.3305   88.5233    9.1066 N.ar    1  UNL1       -0.2093
      8 C          59.9604   87.0919    9.3601 C.ar    1  UNL1        0.2014
      9 N          60.6689   86.3118   10.4275 N.ar    1  UNL1       -0.2050
     10 C          61.7474   86.9631   11.2415 C.ar    1  UNL1        0.1653
     11 H          62.4870   91.0334   10.2014 H       1  UNL1        0.1437
     12 H          61.3141   91.1179    8.9665 H       1  UNL1        0.1437
     13 C          62.9240   81.3021   11.7182 C.2     1  UNL1        0.2492
     14 O          63.1451   81.4968   10.2474 O.2     1  UNL1       -0.2699
     15 N          62.7360   82.4917   12.6123 N.am    1  UNL1       -0.2741
     16 C          62.5148   82.2971   14.0831 C.3     1  UNL1        0.0938
     17 C          62.3268   83.4867   14.9771 C.3     1  UNL1        0.0236
     18 C          62.3599   84.8710   14.4004 C.3     1  UNL1        0.0279
     19 C          62.5811   85.0657   12.9297 C.3     1  UNL1        0.1266
     20 C          62.7691   83.8760   12.0356 C.3     1  UNL1        0.1180
     21 C          61.9898   79.6096   13.4539 C.2     1  UNL1        0.0048
     22 C          62.8908   79.9178   12.2949 C.2     1  UNL1        0.0579
     23 C          63.8838   90.1043   12.0375 C.ar    1  UNL1        0.0197
     24 C          63.9838   90.9806   10.8241 C.ar    1  UNL1        0.0047
     25 C          64.6545   92.3190   10.9187 C.ar    1  UNL1        0.0375
     26 C          65.2253   92.7811   12.2266 C.ar    1  UNL1        0.1453
     27 C          65.1254   91.9048   13.4399 C.ar    1  UNL1        0.0375
     28 C          64.4546   90.5665   13.3453 C.ar    1  UNL1        0.0047
     29 O          65.8961   94.1194   12.3212 O.3     1  UNL1       -0.4535
     30 C          66.4286   94.7804   11.0845 C.ar    1  UNL1        0.1453
     31 C          67.3491   94.0286   10.1693 C.ar    1  UNL1        0.0375
     32 C          67.8816   94.6898    8.9326 C.ar    1  UNL1        0.0031
     33 C          67.4937   96.1026    8.6111 C.ar    1  UNL1        0.0002
     34 C          66.5732   96.8544    9.5262 C.ar    1  UNL1        0.0031
     35 C          66.0407   96.1933   10.7629 C.ar    1  UNL1        0.0375
@<TRIPOS>BOND
     1    21    22    2
     2    22    13    1
     3    13    14    2
     4    13    15   am
     5    15    16    1
     6    16    17    1
     7    17    18    1
     8    18    19    1
     9    19     1    1
    10     1     2   ar
    11     2     3   ar
    12     3    23    1
    13    23    24   ar
    14    24    25   ar
    15    25    26   ar
    16    26    29    1
    17    29    30    1
    18    30    31   ar
    19    31    32   ar
    20    32    33   ar
    21    33    34   ar
    22    34    35   ar
    23    26    27   ar
    24    27    28   ar
    25     3     4   ar
    26     4     5   ar
    27     5     6    1
    28     5     7   ar
    29     7     8   ar
    30     8     9   ar
    31     9    10   ar
    32    19    20    1
    33    20    15    1
    34    10     1   ar
    35    28    23   ar
    36    10     4   ar
    37    35    30   ar
    38     6    11    1
    39     6    12    1
@<TRIPOS>MOLECULE
*****
 35 39 0 0 0
SMALL
GASTEIGER

@<TRIPOS>ATOM
      1 N          62.6329   85.3615   12.4852 N.ar    1  UNL1       -0.2342
      2 N          63.3809   86.3925   13.2774 N.ar    1  UNL1       -0.1679
      3 C          63.2393   87.7099   12.5742 C.ar    1  UNL1        0.1065
      4 C          62.4036   87.4931   11.3475 C.ar    1  UNL1        0.0860
      5 C          61.9356   88.4298   10.2735 C.ar    1  UNL1        0.1316
      6 N          62.3103   89.8812   10.3285 N.pl3   1  UNL1       -0.3425
      7 N          61.0927   87.9151    9.1446 N.ar    1  UNL1       -0.2093
      8 C          60.7179   86.4637    9.0896 C.ar    1  UNL1        0.2014
      9 N          61.1860   85.5270   10.1636 N.ar    1  UNL1       -0.2050
     10 C          62.0288   86.0417   11.2925 C.ar    1  UNL1        0.1653
     11 H          62.8635   90.2190   11.0695 H       1  UNL1        0.1437
     12 H          62.0031   90.4959    9.6236 H       1  UNL1        0.1437
     13 C          62.8661   80.3707   11.0579 C.2     1  UNL1        0.2492
     14 O          63.2279   80.7866    9.6629 O.2     1  UNL1       -0.2699
     15 N          62.6269   81.4104   12.1123 N.am    1  UNL1       -0.2741
     16 C          62.2652   80.9946   13.5073 C.3     1  UNL1        0.0938
     17 C          62.0260   82.0343   14.5617 C.3     1  UNL1        0.0236
     18 C          62.1485   83.4900   14.2209 C.3     1  UNL1        0.0279
     19 C          62.5103   83.9059   12.8260 C.3     1  UNL1        0.1266
     20 C          62.7495   82.8661   11.7716 C.3     1  UNL1        0.1180
     21 C          62.7451   77.8865   10.3068 C.2     1  UNL1        0.0048
     22 C          62.7436   78.9151   11.3987 C.2     1  UNL1        0.0579
     23 C          63.8296   89.0150   13.0195 C.ar    1  UNL1        0.0197
     24 C          64.5059   89.1155   14.3547 C.ar    1  UNL1        0.0047
     25 C          65.0962   90.4206   14.8000 C.ar    1  UNL1        0.0375
     26 C          65.0103   91.6251   13.9103 C.ar    1  UNL1        0.1453
     27 C          64.3340   91.5245   12.5751 C.ar    1  UNL1        0.0375
     28 C          63.7437   90.2195   12.1298 C.ar    1  UNL1        0.0047
     29 O          65.6006   92.9302   14.3556 O.3     1  UNL1       -0.4535
     30 C          67.0609   93.0187   14.6863 C.ar    1  UNL1        0.1453
     31 C          68.0546   92.1961   13.9208 C.ar    1  UNL1        0.0375
     32 C          69.5150   92.2847   14.2516 C.ar    1  UNL1        0.0031
     33 C          69.9818   93.1958   15.3480 C.ar    1  UNL1        0.0002
     34 C          68.9881   94.0183   16.1136 C.ar    1  UNL1        0.0031
     35 C          67.5278   93.9298   15.7827 C.ar    1  UNL1        0.0375
@<TRIPOS>BOND
     1    21    22    2
     2    22    13    1
     3    13    14    2
     4    13    15   am
     5    15    16    1
     6    16    17    1
     7    17    18    1
     8    18    19    1
     9    19     1    1
    10     1     2   ar
    11     2     3   ar
    12     3    23    1
    13    23    24   ar
    14    24    25   ar
    15    25    26   ar
    16    26    29    1
    17    29    30    1
    18    30    31   ar
    19    31    32   ar
    20    32    33   ar
    21    33    34   ar
    22    34    35   ar
    23    26    27   ar
    24    27    28   ar
    25     3     4   ar
    26     4     5   ar
    27     5     6    1
    28     5     7   ar
    29     7     8   ar
    30     8     9   ar
    31     9    10   ar
    32    19    20    1
    33    20    15    1
    34    10     1   ar
    35    28    23   ar
    36    10     4   ar
    37    35    30   ar
    38     6    11    1
    39     6    12    1
@<TRIPOS>MOLECULE
*****
 35 39 0 0 0
SMALL
GASTEIGER

@<TRIPOS>ATOM
      1 N          62.8192   86.0160   11.7130 N.ar    1  UNL1       -0.2342
      2 N          63.6627   86.8717   12.6108 N.ar    1  UNL1       -0.1679
      3 C          63.1989   88.2911   12.4682 C.ar    1  UNL1        0.1065
      4 C          62.0686   88.3125   11.4822 C.ar    1  UNL1        0.0860
      5 C          61.2228   89.4307   10.9491 C.ar    1  UNL1        0.1316
      6 N          61.4575   90.8368   11.4159 N.pl3   1  UNL1       -0.3425
      7 N          60.1424   89.1429    9.9493 N.ar    1  UNL1       -0.2093
      8 C          59.9077   87.7368    9.4825 C.ar    1  UNL1        0.2014
      9 N          60.7535   86.6186   10.0156 N.ar    1  UNL1       -0.2050
     10 C          61.8340   86.9064   11.0154 C.ar    1  UNL1        0.1653
     11 H          62.1666   91.0257   12.0722 H       1  UNL1        0.1437
     12 H          60.9024   91.5707   11.0660 H       1  UNL1        0.1437
     13 C          62.3454   81.2126   13.6373 C.2     1  UNL1        0.2492
     14 O          61.8676   81.7817   14.9403 O.2     1  UNL1       -0.2699
     15 N          62.7028   82.1288   12.5047 N.am    1  UNL1       -0.2741
     16 C          63.1806   81.5597   11.2017 C.3     1  UNL1        0.0938
     17 C          63.5379   82.4760   10.0692 C.3     1  UNL1        0.0236
     18 C          63.4174   83.9615   10.2396 C.3     1  UNL1        0.0279
     19 C          62.9397   84.5306   11.5425 C.3     1  UNL1        0.1266
     20 C          62.5823   83.6143   12.6751 C.3     1  UNL1        0.1180
     21 C          62.4740   79.1283   12.0915 C.2     1  UNL1        0.0048
     22 C          62.4659   79.7272   13.4668 C.2     1  UNL1        0.0579
     23 C          63.7657   89.4802   13.1856 C.ar    1  UNL1        0.0197
     24 C          64.4392   90.5733   12.4098 C.ar    1  UNL1        0.0047
     25 C          65.0060   91.7624   13.1272 C.ar    1  UNL1        0.0375
     26 C          64.8994   91.8585   14.6203 C.ar    1  UNL1        0.1453
     27 C          64.2259   90.7655   15.3960 C.ar    1  UNL1        0.0375
     28 C          63.6590   89.5764   14.6786 C.ar    1  UNL1        0.0047
     29 O          65.4662   93.0477   15.3378 O.3     1  UNL1       -0.4535
     30 C          66.9301   93.1013   15.6602 C.ar    1  UNL1        0.1453
     31 C          67.7102   94.3556   15.3992 C.ar    1  UNL1        0.0375
     32 C          69.1742   94.4091   15.7217 C.ar    1  UNL1        0.0031
     33 C          69.8581   93.2083   16.3052 C.ar    1  UNL1        0.0002
     34 C          69.0780   91.9540   16.5662 C.ar    1  UNL1        0.0031
     35 C          67.6140   91.9005   16.2437 C.ar    1  UNL1        0.0375
@<TRIPOS>BOND
     1    21    22    2
     2    22    13    1
     3    13    14    2
     4    13    15   am
     5    15    16    1
     6    16    17    1
     7    17    18    1
     8    18    19    1
     9    19     1    1
    10     1     2   ar
    11     2     3   ar
    12     3    23    1
    13    23    24   ar
    14    24    25   ar
    15    25    26   ar
    16    26    29    1
    17    29    30    1
    18    30    31   ar
    19    31    32   ar
    20    32    33   ar
    21    33    34   ar
    22    34    35   ar
    23    26    27   ar
    24    27    28   ar
    25     3     4   ar
    26     4     5   ar
    27     5     6    1
    28     5     7   ar
    29     7     8   ar
    30     8     9   ar
    31     9    10   ar
    32    19    20    1
    33    20    15    1
    34    10     1   ar
    35    28    23   ar
    36    10     4   ar
    37    35    30   ar
    38     6    11    1
    39     6    12    1
@<TRIPOS>MOLECULE
*****
 35 39 0 0 0
SMALL
GASTEIGER

@<TRIPOS>ATOM
      1 N          44.4998   79.2732   16.9628 N.ar    1  UNL1       -0.2342
      2 N          44.2311   77.9281   16.3557 N.ar    1  UNL1       -0.1679
      3 C          44.6301   76.8813   17.3532 C.ar    1  UNL1        0.1065
      4 C          45.1453   77.5794   18.5768 C.ar    1  UNL1        0.0860
      5 C          45.6774   77.0600   19.8795 C.ar    1  UNL1        0.1316
      6 N          45.7579   75.5817   20.1208 N.pl3   1  UNL1       -0.3425
      7 N          46.1290   78.0188   20.9409 N.ar    1  UNL1       -0.2093
      8 C          46.0484   79.4971   20.6997 C.ar    1  UNL1        0.2014
      9 N          45.5163   80.0165   19.3970 N.ar    1  UNL1       -0.2050
     10 C          45.0648   79.0577   18.3356 C.ar    1  UNL1        0.1653
     11 H          45.4616   74.9524   19.4241 H       1  UNL1        0.1437
     12 H          46.1072   75.2408   20.9758 H       1  UNL1        0.1437
     13 C          43.8855   82.1349   12.6695 C.2     1  UNL1        0.2492
     14 O          44.0825   80.9108   11.8253 O.2     1  UNL1       -0.2699
     15 N          43.9405   82.0316   14.1649 N.am    1  UNL1       -0.2741
     16 C          43.7435   83.2558   15.0090 C.3     1  UNL1        0.0938
     17 C          43.7986   83.1524   16.5044 C.3     1  UNL1        0.0236
     18 C          44.0507   81.8248   17.1557 C.3     1  UNL1        0.0279
     19 C          44.2477   80.6007   16.3116 C.3     1  UNL1        0.1266
     20 C          44.1926   80.7041   14.8161 C.3     1  UNL1        0.1180
     21 C          43.6689   83.5834   10.5235 C.2     1  UNL1        0.0048
     22 C          43.6334   83.4625   12.0182 C.2     1  UNL1        0.0579
     23 C          44.5312   75.3970   17.1609 C.ar    1  UNL1        0.0197
     24 C          43.7356   74.5672   18.1246 C.ar    1  UNL1        0.0047
     25 C          43.6367   73.0828   17.9323 C.ar    1  UNL1        0.0375
     26 C          44.3334   72.4283   16.7764 C.ar    1  UNL1        0.1453
     27 C          45.1289   73.2580   15.8127 C.ar    1  UNL1        0.0375
     28 C          45.2278   74.7424   16.0051 C.ar    1  UNL1        0.0047
     29 O          44.2345   70.9439   16.5841 O.3     1  UNL1       -0.4535
     30 C          44.7872   70.3102   15.3420 C.ar    1  UNL1        0.1453
     31 C          46.0459   69.4972   15.4111 C.ar    1  UNL1        0.0375
     32 C          46.5986   68.8634   14.1689 C.ar    1  UNL1        0.0031
     33 C          45.8927   69.0428   12.8576 C.ar    1  UNL1        0.0002
     34 C          44.6340   69.8558   12.7885 C.ar    1  UNL1        0.0031
     35 C          44.0813   70.4895   14.0306 C.ar    1  UNL1        0.0375
@<TRIPOS>BOND
     1    21    22    2
     2    22    13    1
     3    13    14    2
     4    13    15   am
     5    15    16    1
     6    16    17    1
     7    17    18    1
     8    18    19    1
     9    19     1    1
    10     1     2   ar
    11     2     3   ar
    12     3    23    1
    13    23    24   ar
    14    24    25   ar
    15    25    26   ar
    16    26    29    1
    17    29    30    1
    18    30    31   ar
    19    31    32   ar
    20    32    33   ar
    21    33    34   ar
    22    34    35   ar
    23    26    27   ar
    24    27    28   ar
    25     3     4   ar
    26     4     5   ar
    27     5     6    1
    28     5     7   ar
    29     7     8   ar
    30     8     9   ar
    31     9    10   ar
    32    19    20    1
    33    20    15    1
    34    10     1   ar
    35    28    23   ar
    36    10     4   ar
    37    35    30   ar
    38     6    11    1
    39     6    12    1
@<TRIPOS>MOLECULE
*****
 35 39 0 0 0
SMALL
GASTEIGER

@<TRIPOS>ATOM
      1 N          62.6010   86.0170   11.0328 N.ar    1  UNL1       -0.2342
      2 N          63.5008   87.0715   11.6059 N.ar    1  UNL1       -0.1679
      3 C          62.9582   88.4113   11.2052 C.ar    1  UNL1        0.1065
      4 C          61.7232   88.1848   10.3846 C.ar    1  UNL1        0.0860
      5 C          60.7711   89.1349    9.7207 C.ar    1  UNL1        0.1316
      6 N          60.9918   90.6147    9.8272 N.pl3   1  UNL1       -0.3425
      7 N          59.5983   88.6051    8.9501 N.ar    1  UNL1       -0.2093
      8 C          59.3775   87.1253    8.8436 C.ar    1  UNL1        0.2014
      9 N          60.3296   86.1752    9.5075 N.ar    1  UNL1       -0.2050
     10 C          61.5024   86.7050   10.2781 C.ar    1  UNL1        0.1653
     11 H          61.7616   90.9624   10.3330 H       1  UNL1        0.1437
     12 H          60.3669   91.2383    9.3914 H       1  UNL1        0.1437
     13 C          62.5290   81.7670   14.0216 C.2     1  UNL1        0.2492
     14 O          62.1547   82.6068   15.2067 O.2     1  UNL1       -0.2699
     15 N          62.7342   82.4095   12.6818 N.am    1  UNL1       -0.2741
     16 C          63.1085   81.5697   11.4966 C.3     1  UNL1        0.0938
     17 C          63.3137   82.2124   10.1569 C.3     1  UNL1        0.0236
     18 C          63.1445   83.6948   10.0023 C.3     1  UNL1        0.0279
     19 C          62.7702   84.5346   11.1874 C.3     1  UNL1        0.1266
     20 C          62.5650   83.8919   12.5272 C.3     1  UNL1        0.1180
     21 C          61.5812   79.3585   13.7954 C.2     1  UNL1        0.0048
     22 C          62.6982   80.2846   14.1761 C.2     1  UNL1        0.0579
     23 C          63.5472   89.7438   11.5625 C.ar    1  UNL1        0.0197
     24 C          63.9063   90.0475   12.9870 C.ar    1  UNL1        0.0047
     25 C          64.4953   91.3799   13.3443 C.ar    1  UNL1        0.0375
     26 C          64.7253   92.4087   12.2772 C.ar    1  UNL1        0.1453
     27 C          64.3663   92.1050   10.8528 C.ar    1  UNL1        0.0375
     28 C          63.7773   90.7726   10.4955 C.ar    1  UNL1        0.0047
     29 O          65.3143   93.7411   12.6344 O.3     1  UNL1       -0.4535
     30 C          66.0338   94.5464   11.5934 C.ar    1  UNL1        0.1453
     31 C          66.7710   93.8534   10.4861 C.ar    1  UNL1        0.0375
     32 C          67.4905   94.6588    9.4450 C.ar    1  UNL1        0.0031
     33 C          67.4728   96.1572    9.5113 C.ar    1  UNL1        0.0002
     34 C          66.7356   96.8503   10.6186 C.ar    1  UNL1        0.0031
     35 C          66.0162   96.0449   11.6596 C.ar    1  UNL1        0.0375
@<TRIPOS>BOND
     1    21    22    2
     2    22    13    1
     3    13    14    2
     4    13    15   am
     5    15    16    1
     6    16    17    1
     7    17    18    1
     8    18    19    1
     9    19     1    1
    10     1     2   ar
    11     2     3   ar
    12     3    23    1
    13    23    24   ar
    14    24    25   ar
    15    25    26   ar
    16    26    29    1
    17    29    30    1
    18    30    31   ar
    19    31    32   ar
    20    32    33   ar
    21    33    34   ar
    22    34    35   ar
    23    26    27   ar
    24    27    28   ar
    25     3     4   ar
    26     4     5   ar
    27     5     6    1
    28     5     7   ar
    29     7     8   ar
    30     8     9   ar
    31     9    10   ar
    32    19    20    1
    33    20    15    1
    34    10     1   ar
    35    28    23   ar
    36    10     4   ar
    37    35    30   ar
    38     6    11    1
    39     6    12    1
@<TRIPOS>MOLECULE
*****
 35 39 0 0 0
SMALL
GASTEIGER

@<TRIPOS>ATOM
      1 N          44.3489   78.1382   18.3768 N.ar    1  UNL1       -0.2342
      2 N          44.5822   76.9021   17.5598 N.ar    1  UNL1       -0.1679
      3 C          44.5248   75.7199   18.4813 C.ar    1  UNL1        0.1065
      4 C          44.2561   76.2254   19.8678 C.ar    1  UNL1        0.0860
      5 C          44.0964   75.5179   21.1807 C.ar    1  UNL1        0.1316
      6 N          44.2051   74.0232   21.2453 N.pl3   1  UNL1       -0.3425
      7 N          43.8280   76.3050   22.4290 N.ar    1  UNL1       -0.2093
      8 C          43.7193   77.7996   22.3644 C.ar    1  UNL1        0.2014
      9 N          43.8790   78.5072   21.0515 N.ar    1  UNL1       -0.2050
     10 C          44.1474   77.7201   19.8032 C.ar    1  UNL1        0.1653
     11 H          44.3813   73.5066   20.4260 H       1  UNL1        0.1437
     12 H          44.1003   73.5588   22.1071 H       1  UNL1        0.1437
     13 C          44.1559   81.4611   14.3866 C.2     1  UNL1        0.2492
     14 O          44.1134   80.3079   13.4283 O.2     1  UNL1       -0.2699
     15 N          44.2254   81.2070   15.8633 N.am    1  UNL1       -0.2741
     16 C          44.2679   82.3602   16.8216 C.3     1  UNL1        0.0938
     17 C          44.3374   82.1061   18.2982 C.3     1  UNL1        0.0236
     18 C          44.3644   80.6988   18.8166 C.3     1  UNL1        0.0279
     19 C          44.3219   79.5456   17.8584 C.3     1  UNL1        0.1266
     20 C          44.2524   79.7997   16.3817 C.3     1  UNL1        0.1180
     21 C          43.6333   83.1470   12.4801 C.2     1  UNL1        0.0048
     22 C          44.1289   82.8684   13.8682 C.2     1  UNL1        0.0579
     23 C          44.7046   74.2842   18.0858 C.ar    1  UNL1        0.0197
     24 C          43.6830   73.6120   17.2169 C.ar    1  UNL1        0.0047
     25 C          43.8628   72.1763   16.8214 C.ar    1  UNL1        0.0375
     26 C          45.0640   71.4127   17.2948 C.ar    1  UNL1        0.1453
     27 C          46.0854   72.0848   18.1636 C.ar    1  UNL1        0.0375
     28 C          45.9057   73.5206   18.5591 C.ar    1  UNL1        0.0047
     29 O          45.2438   69.9770   16.8993 O.3     1  UNL1       -0.4535
     30 C          45.3812   69.6095   15.4515 C.ar    1  UNL1        0.1453
     31 C          44.4650   70.2196   14.4325 C.ar    1  UNL1        0.0375
     32 C          44.6025   69.8520   12.9847 C.ar    1  UNL1        0.0031
     33 C          45.6564   68.8745   12.5559 C.ar    1  UNL1        0.0002
     34 C          46.5726   68.2644   13.5749 C.ar    1  UNL1        0.0031
     35 C          46.4351   68.6320   15.0226 C.ar    1  UNL1        0.0375
@<TRIPOS>BOND
     1    21    22    2
     2    22    13    1
     3    13    14    2
     4    13    15   am
     5    15    16    1
     6    16    17    1
     7    17    18    1
     8    18    19    1
     9    19     1    1
    10     1     2   ar
    11     2     3   ar
    12     3    23    1
    13    23    24   ar
    14    24    25   ar
    15    25    26   ar
    16    26    29    1
    17    29    30    1
    18    30    31   ar
    19    31    32   ar
    20    32    33   ar
    21    33    34   ar
    22    34    35   ar
    23    26    27   ar
    24    27    28   ar
    25     3     4   ar
    26     4     5   ar
    27     5     6    1
    28     5     7   ar
    29     7     8   ar
    30     8     9   ar
    31     9    10   ar
    32    19    20    1
    33    20    15    1
    34    10     1   ar
    35    28    23   ar
    36    10     4   ar
    37    35    30   ar
    38     6    11    1
    39     6    12    1
@<TRIPOS>MOLECULE
*****
 35 39 0 0 0
SMALL
GASTEIGER

@<TRIPOS>ATOM
      1 N          59.9861   89.2074    7.7054 N.ar    1  UNL1       -0.2342
      2 N          60.7107   87.9009    7.5717 N.ar    1  UNL1       -0.1679
      3 C          61.1253   87.4584    8.9436 C.ar    1  UNL1        0.1065
      4 C          60.6569   88.4914    9.9252 C.ar    1  UNL1        0.0860
      5 C          60.7805   88.5873   11.4170 C.ar    1  UNL1        0.1316
      6 N          61.4847   87.5063   12.1823 N.pl3   1  UNL1       -0.3425
      7 N          60.2001   89.7642   12.1435 N.ar    1  UNL1       -0.2093
      8 C          59.4960   90.8452   11.3782 C.ar    1  UNL1        0.2014
      9 N          59.3723   90.7493    9.8864 N.ar    1  UNL1       -0.2050
     10 C          59.9528   89.5724    9.1599 C.ar    1  UNL1        0.1653
     11 H          61.8656   86.7338   11.7055 H       1  UNL1        0.1437
     12 H          61.5658   87.5693   13.1614 H       1  UNL1        0.1437
     13 C          60.6117   92.1973    3.5019 C.2     1  UNL1        0.2492
     14 O          62.1008   92.0902    3.6473 O.2     1  UNL1       -0.2699
     15 N          59.7107   91.5034    4.4800 N.am    1  UNL1       -0.2741
     16 C          58.2217   91.6105    4.3345 C.3     1  UNL1        0.0938
     17 C          57.3207   90.9166    5.3127 C.3     1  UNL1        0.0236
     18 C          57.9089   90.1156    6.4363 C.3     1  UNL1        0.0279
     19 C          59.3979   90.0084    6.5818 C.3     1  UNL1        0.1266
     20 C          60.2989   90.7024    5.6036 C.3     1  UNL1        0.1180
     21 C          60.3014   92.6115    0.9558 C.2     1  UNL1        0.0048
     22 C          60.0236   92.9983    2.3783 C.2     1  UNL1        0.0579
     23 C          61.8765   86.2032    9.2757 C.ar    1  UNL1        0.0197
     24 C          62.8357   85.6179    8.2819 C.ar    1  UNL1        0.0047
     25 C          63.5868   84.3628    8.6139 C.ar    1  UNL1        0.0375
     26 C          63.3789   83.6928    9.9398 C.ar    1  UNL1        0.1453
     27 C          62.4198   84.2780   10.9336 C.ar    1  UNL1        0.0375
     28 C          61.6686   85.5332   10.6015 C.ar    1  UNL1        0.0047
     29 O          64.1300   82.4376   10.2719 O.3     1  UNL1       -0.4535
     30 C          63.7569   81.6393   11.4857 C.ar    1  UNL1        0.1453
     31 C          62.8301   80.4669   11.3566 C.ar    1  UNL1        0.0375
     32 C          62.4570   79.6685   12.5705 C.ar    1  UNL1        0.0031
     33 C          63.0106   80.0426   13.9135 C.ar    1  UNL1        0.0002
     34 C          63.9374   81.2150   14.0426 C.ar    1  UNL1        0.0031
     35 C          64.3105   82.0133   12.8287 C.ar    1  UNL1        0.0375
@<TRIPOS>BOND
     1    21    22    2
     2    22    13    1
     3    13    14    2
     4    13    15   am
     5    15    16    1
     6    16    17    1
     7    17    18    1
     8    18    19    1
     9    19     1    1
    10     1     2   ar
    11     2     3   ar
    12     3    23    1
    13    23    24   ar
    14    24    25   ar
    15    25    26   ar
    16    26    29    1
    17    29    30    1
    18    30    31   ar
    19    31    32   ar
    20    32    33   ar
    21    33    34   ar
    22    34    35   ar
    23    26    27   ar
    24    27    28   ar
    25     3     4   ar
    26     4     5   ar
    27     5     6    1
    28     5     7   ar
    29     7     8   ar
    30     8     9   ar
    31     9    10   ar
    32    19    20    1
    33    20    15    1
    34    10     1   ar
    35    28    23   ar
    36    10     4   ar
    37    35    30   ar
    38     6    11    1
    39     6    12    1
