@<TRIPOS>MOLECULE
*****
 31 34 0 0 0
SMALL
GASTEIGER

@<TRIPOS>ATOM
      1 C          64.9411   90.9682   14.1075 C.ar    1  UNL1        0.0180
      2 C          64.1891   91.8436   13.1493 C.ar    1  UNL1        0.0029
      3 C          63.2275   91.2339   12.1728 C.ar    1  UNL1        0.0189
      4 C          63.0179   89.7487   12.1545 C.ar    1  UNL1        0.0789
      5 C          63.7699   88.8733   13.1126 C.ar    1  UNL1        0.0670
      6 C          64.7315   89.4831   14.0891 C.ar    1  UNL1        0.0174
      7 N          62.0563   89.1390   11.1779 N.ar    1  UNL1       -0.2852
      8 C          62.4214   88.3199    9.9756 C.ar    1  UNL1        0.1023
      9 C          61.1515   87.9159    9.2868 C.ar    1  UNL1        0.1196
     10 N          60.0016   88.4855   10.0636 N.ar    1  UNL1       -0.2220
     11 C          60.5608   89.2413   11.2323 C.ar    1  UNL1        0.1829
     12 N          63.5603   87.3881   13.0943 N.am    1  UNL1       -0.2788
     13 C          63.6558   86.6015   14.3679 C.2     1  UNL1        0.2571
     14 O          63.9607   87.3000   15.6598 O.2     1  UNL1       -0.2692
     15 H          63.3602   86.9297   12.2464 H       1  UNL1        0.1552
     16 C          63.4462   85.1162   14.3495 C.ar    1  UNL1        0.1035
     17 C          63.2857   84.2337   15.5518 C.ar    1  UNL1        0.1105
     18 N          63.1006   82.8248   15.0711 N.ar    1  UNL1       -0.2366
     19 C          63.1468   82.8368   13.5718 C.ar    1  UNL1        0.1109
     20 S          63.3604   84.2529   13.1259 S.2     1  UNL1       -0.0619
     21 C          63.0045   81.6423   12.6758 C.ar    1  UNL1        0.0238
     22 C          63.2531   81.7759   11.2026 C.ar    1  UNL1        0.0020
     23 C          63.1107   80.5814   10.3066 C.ar    1  UNL1        0.0001
     24 C          62.7197   79.2533   10.8837 C.ar    1  UNL1        0.0000
     25 C          62.4710   79.1196   12.3570 C.ar    1  UNL1        0.0001
     26 C          62.6134   80.3142   13.2529 C.ar    1  UNL1        0.0020
     27 N          67.3804   91.4435   14.8648 N.2     1  UNL1       -0.0873
     28 C          65.9026   91.5780   15.0840 C.2     1  UNL1        0.0974
     29 C          65.3864   92.3222   16.2797 C.3     1  UNL1        0.0555
     30 C          68.7481   93.4900   15.6964 C.3     1  UNL1        0.2885
     31 O          68.3420   92.0533   15.8414 O.2     1  UNL1       -0.3734
@<TRIPOS>BOND
     1    30    31    1
     2    31    27    1
     3    27    28    2
     4    28    29    1
     5    28     1    1
     6     1     2   ar
     7     2     3   ar
     8     3     4   ar
     9     4     7    1
    10     7     8   ar
    11     8     9   ar
    12     9    10   ar
    13    10    11   ar
    14     4     5   ar
    15     5    12    1
    16    12    13   am
    17    13    14    2
    18    13    16    1
    19    16    17   ar
    20    17    18   ar
    21    18    19   ar
    22    19    21    1
    23    21    22   ar
    24    22    23   ar
    25    23    24   ar
    26    24    25   ar
    27    25    26   ar
    28    19    20   ar
    29     5     6   ar
    30     6     1   ar
    31    11     7   ar
    32    20    16   ar
    33    26    21   ar
    34    12    15    1
@<TRIPOS>MOLECULE
*****
 31 34 0 0 0
SMALL
GASTEIGER

@<TRIPOS>ATOM
      1 C          63.6868   90.5262   12.6101 C.ar    1  UNL1        0.0180
      2 C          63.0768   91.2353   11.4375 C.ar    1  UNL1        0.0029
      3 C          62.3083   90.4598   10.4089 C.ar    1  UNL1        0.0189
      4 C          62.1498   88.9752   10.5529 C.ar    1  UNL1        0.0789
      5 C          62.7598   88.2661   11.7255 C.ar    1  UNL1        0.0670
      6 C          63.5283   89.0416   12.7541 C.ar    1  UNL1        0.0174
      7 N          61.3813   88.1997    9.5243 N.ar    1  UNL1       -0.2852
      8 C          60.1226   88.6469    8.8419 C.ar    1  UNL1        0.1023
      9 C          59.6999   87.5644    7.8933 C.ar    1  UNL1        0.1196
     10 N          60.6974   86.4483    7.9896 N.ar    1  UNL1       -0.2220
     11 C          61.7366   86.8410    8.9976 C.ar    1  UNL1        0.1829
     12 N          62.6013   86.7814   11.8696 N.am    1  UNL1       -0.2788
     13 C          63.2168   86.0714   13.0387 C.2     1  UNL1        0.2571
     14 O          63.9908   86.8460   14.0639 O.2     1  UNL1       -0.2692
     15 H          62.0933   86.2730   11.1967 H       1  UNL1        0.1552
     16 C          63.0583   84.5867   13.1828 C.ar    1  UNL1        0.1035
     17 C          62.8668   83.8414   14.4703 C.ar    1  UNL1        0.1105
     18 N          62.7536   82.3807   14.1479 N.ar    1  UNL1       -0.2366
     19 C          62.8752   82.2235   12.6611 C.ar    1  UNL1        0.1109
     20 S          63.0635   83.5869   12.0646 S.2     1  UNL1       -0.0619
     21 C          62.8184   80.9300   11.9037 C.ar    1  UNL1        0.0238
     22 C          62.5338   79.6481   12.6288 C.ar    1  UNL1        0.0020
     23 C          62.4770   78.3547   11.8715 C.ar    1  UNL1        0.0001
     24 C          62.7048   78.3430   10.3890 C.ar    1  UNL1        0.0000
     25 C          62.9895   79.6249    9.6637 C.ar    1  UNL1        0.0001
     26 C          63.0462   80.9184   10.4212 C.ar    1  UNL1        0.0020
     27 N          65.2401   92.5137   13.2324 N.2     1  UNL1       -0.0873
     28 C          64.4553   91.3017   13.6387 C.2     1  UNL1        0.0974
     29 C          64.4390   90.8652   15.0737 C.3     1  UNL1        0.0555
     30 C          67.4531   92.9734   14.5135 C.3     1  UNL1        0.2885
     31 O          66.0086   93.2892   14.2610 O.2     1  UNL1       -0.3734
@<TRIPOS>BOND
     1    30    31    1
     2    31    27    1
     3    27    28    2
     4    28    29    1
     5    28     1    1
     6     1     2   ar
     7     2     3   ar
     8     3     4   ar
     9     4     7    1
    10     7     8   ar
    11     8     9   ar
    12     9    10   ar
    13    10    11   ar
    14     4     5   ar
    15     5    12    1
    16    12    13   am
    17    13    14    2
    18    13    16    1
    19    16    17   ar
    20    17    18   ar
    21    18    19   ar
    22    19    21    1
    23    21    22   ar
    24    22    23   ar
    25    23    24   ar
    26    24    25   ar
    27    25    26   ar
    28    19    20   ar
    29     5     6   ar
    30     6     1   ar
    31    11     7   ar
    32    20    16   ar
    33    26    21   ar
    34    12    15    1
@<TRIPOS>MOLECULE
*****
 31 34 0 0 0
SMALL
GASTEIGER

@<TRIPOS>ATOM
      1 C          63.4661   85.1698   13.8075 C.ar    1  UNL1        0.0180
      2 C          64.1043   86.2886   14.5761 C.ar    1  UNL1        0.0029
      3 C          64.0883   87.6830   14.0233 C.ar    1  UNL1        0.0189
      4 C          63.4342   87.9584   12.7019 C.ar    1  UNL1        0.0789
      5 C          62.7960   86.8396   11.9333 C.ar    1  UNL1        0.0670
      6 C          62.8120   85.4452   12.4861 C.ar    1  UNL1        0.0174
      7 N          63.4182   89.3528   12.1492 N.ar    1  UNL1       -0.2852
      8 C          63.0451   89.7421   10.7494 C.ar    1  UNL1        0.1023
      9 C          63.1688   91.2325   10.6342 C.ar    1  UNL1        0.1196
     10 N          63.6184   91.7644   11.9627 N.ar    1  UNL1       -0.2220
     11 C          63.7725   90.6026   12.8990 C.ar    1  UNL1        0.1829
     12 N          62.1417   87.1150   10.6119 N.am    1  UNL1       -0.2788
     13 C          60.7335   87.6294   10.5649 C.2     1  UNL1        0.2571
     14 O          59.9795   87.8685   11.8394 O.2     1  UNL1       -0.2692
     15 H          62.6367   86.9581    9.7754 H       1  UNL1        0.1552
     16 C          60.0793   87.9049    9.2434 C.ar    1  UNL1        0.1035
     17 C          59.2676   86.9311    8.4416 C.ar    1  UNL1        0.1105
     18 N          58.8086   87.6268    7.1944 N.ar    1  UNL1       -0.2366
     19 C          59.3366   89.0305    7.2255 C.ar    1  UNL1        0.1109
     20 S          60.1220   89.2023    8.4919 S.2     1  UNL1       -0.0619
     21 C          59.1177   90.0783    6.1748 C.ar    1  UNL1        0.0238
     22 C          57.7277   90.5458    5.8599 C.ar    1  UNL1        0.0020
     23 C          57.5088   91.5936    4.8092 C.ar    1  UNL1        0.0001
     24 C          58.6799   92.1740    4.0733 C.ar    1  UNL1        0.0000
     25 C          60.0701   91.7065    4.3881 C.ar    1  UNL1        0.0001
     26 C          60.2889   90.6586    5.4389 C.ar    1  UNL1        0.0020
     27 N          62.3973   82.8086   13.9883 N.2     1  UNL1       -0.0873
     28 C          63.4821   83.7754   14.3603 C.2     1  UNL1        0.0974
     29 C          64.5829   83.3479   15.2852 C.3     1  UNL1        0.0555
     30 C          62.4042   80.2382   13.6100 C.3     1  UNL1        0.2885
     31 O          62.4133   81.4143   14.5411 O.2     1  UNL1       -0.3734
@<TRIPOS>BOND
     1    30    31    1
     2    31    27    1
     3    27    28    2
     4    28    29    1
     5    28     1    1
     6     1     2   ar
     7     2     3   ar
     8     3     4   ar
     9     4     7    1
    10     7     8   ar
    11     8     9   ar
    12     9    10   ar
    13    10    11   ar
    14     4     5   ar
    15     5    12    1
    16    12    13   am
    17    13    14    2
    18    13    16    1
    19    16    17   ar
    20    17    18   ar
    21    18    19   ar
    22    19    21    1
    23    21    22   ar
    24    22    23   ar
    25    23    24   ar
    26    24    25   ar
    27    25    26   ar
    28    19    20   ar
    29     5     6   ar
    30     6     1   ar
    31    11     7   ar
    32    20    16   ar
    33    26    21   ar
    34    12    15    1
@<TRIPOS>MOLECULE
*****
 31 34 0 0 0
SMALL
GASTEIGER

@<TRIPOS>ATOM
      1 C          65.9876   93.4261   12.4639 C.ar    1  UNL1        0.0180
      2 C          66.1339   93.4607   13.9563 C.ar    1  UNL1        0.0029
      3 C          65.5593   92.3555   14.7921 C.ar    1  UNL1        0.0189
      4 C          64.8384   91.2158   14.1353 C.ar    1  UNL1        0.0789
      5 C          64.6921   91.1812   12.6429 C.ar    1  UNL1        0.0670
      6 C          65.2668   92.2864   11.8072 C.ar    1  UNL1        0.0174
      7 N          64.2638   90.1106   14.9711 N.ar    1  UNL1       -0.2852
      8 C          63.4869   90.2797   16.2430 C.ar    1  UNL1        0.1023
      9 C          63.1081   88.9159   16.7396 C.ar    1  UNL1        0.1196
     10 N          63.6509   87.9039   15.7746 N.ar    1  UNL1       -0.2220
     11 C          64.3652   88.6423   14.6816 C.ar    1  UNL1        0.1829
     12 N          63.9712   90.0414   11.9861 N.am    1  UNL1       -0.2788
     13 C          62.5336   90.1940   11.5863 C.2     1  UNL1        0.2571
     14 O          61.8168   91.4864   11.8432 O.2     1  UNL1       -0.2692
     15 H          64.4417   89.1932   11.8175 H       1  UNL1        0.1552
     16 C          61.8127   89.0543   10.9295 C.ar    1  UNL1        0.1035
     17 C          60.4639   88.5242   11.3164 C.ar    1  UNL1        0.1105
     18 N          60.1316   87.3868   10.3966 N.ar    1  UNL1       -0.2366
     19 C          61.2751   87.2140    9.4412 C.ar    1  UNL1        0.1109
     20 S          62.3141   88.2446    9.7706 S.2     1  UNL1       -0.0619
     21 C          61.3640   86.1905    8.3484 C.ar    1  UNL1        0.0238
     22 C          62.6703   85.5113    8.0613 C.ar    1  UNL1        0.0020
     23 C          62.7592   84.4878    6.9685 C.ar    1  UNL1        0.0001
     24 C          61.5418   84.1433    6.1627 C.ar    1  UNL1        0.0000
     25 C          60.2354   84.8224    6.4498 C.ar    1  UNL1        0.0001
     26 C          60.1466   85.8460    7.5426 C.ar    1  UNL1        0.0020
     27 N          67.5086   94.2111   10.5093 N.2     1  UNL1       -0.0873
     28 C          66.5623   94.5313   11.6282 C.2     1  UNL1        0.0974
     29 C          66.1906   95.9566   11.9114 C.3     1  UNL1        0.0555
     30 C          67.4165   95.7091    8.3886 C.3     1  UNL1        0.2885
     31 O          68.0832   95.3163    9.6736 O.2     1  UNL1       -0.3734
@<TRIPOS>BOND
     1    30    31    1
     2    31    27    1
     3    27    28    2
     4    28    29    1
     5    28     1    1
     6     1     2   ar
     7     2     3   ar
     8     3     4   ar
     9     4     7    1
    10     7     8   ar
    11     8     9   ar
    12     9    10   ar
    13    10    11   ar
    14     4     5   ar
    15     5    12    1
    16    12    13   am
    17    13    14    2
    18    13    16    1
    19    16    17   ar
    20    17    18   ar
    21    18    19   ar
    22    19    21    1
    23    21    22   ar
    24    22    23   ar
    25    23    24   ar
    26    24    25   ar
    27    25    26   ar
    28    19    20   ar
    29     5     6   ar
    30     6     1   ar
    31    11     7   ar
    32    20    16   ar
    33    26    21   ar
    34    12    15    1
@<TRIPOS>MOLECULE
*****
 31 34 0 0 0
SMALL
GASTEIGER

@<TRIPOS>ATOM
      1 C          62.9917   82.2197   12.3545 C.ar    1  UNL1        0.0180
      2 C          62.4529   81.7197   13.6621 C.ar    1  UNL1        0.0029
      3 C          62.2820   82.6655   14.8137 C.ar    1  UNL1        0.0189
      4 C          62.6499   84.1113   14.6578 C.ar    1  UNL1        0.0789
      5 C          63.1886   84.6113   13.3502 C.ar    1  UNL1        0.0670
      6 C          63.3596   83.6655   12.1986 C.ar    1  UNL1        0.0174
      7 N          62.4789   85.0571   15.8094 N.ar    1  UNL1       -0.2852
      8 C          63.5696   85.5549   16.7109 C.ar    1  UNL1        0.1023
      9 C          62.9521   86.4767   17.7204 C.ar    1  UNL1        0.1196
     10 N          61.4797   86.5485   17.4428 N.ar    1  UNL1       -0.2220
     11 C          61.1873   85.6712   16.2618 C.ar    1  UNL1        0.1829
     12 N          63.5565   86.0571   13.1943 N.am    1  UNL1       -0.2788
     13 C          62.6701   86.9758   12.4067 C.2     1  UNL1        0.2571
     14 O          61.4159   86.4487   11.7750 O.2     1  UNL1       -0.2692
     15 H          64.3797   86.4031   13.6089 H       1  UNL1        0.1552
     16 C          63.0380   88.4217   12.2507 C.ar    1  UNL1        0.1035
     17 C          62.4673   89.3726   11.2407 C.ar    1  UNL1        0.1105
     18 N          63.1177   90.7090   11.4431 N.ar    1  UNL1       -0.2366
     19 C          64.0904   90.5840   12.5782 C.ar    1  UNL1        0.1109
     20 S          64.0411   89.1703   13.0773 S.2     1  UNL1       -0.0619
     21 C          64.9597   91.6801   13.1191 C.ar    1  UNL1        0.0238
     22 C          65.4020   92.7983   12.2224 C.ar    1  UNL1        0.0020
     23 C          66.2713   93.8944   12.7634 C.ar    1  UNL1        0.0001
     24 C          66.6983   93.8725   14.2011 C.ar    1  UNL1        0.0000
     25 C          66.2560   92.7544   15.0980 C.ar    1  UNL1        0.0001
     26 C          65.3867   91.6583   14.5569 C.ar    1  UNL1        0.0020
     27 N          62.6642   79.8633   11.3106 N.2     1  UNL1       -0.0873
     28 C          63.1627   81.2739   11.2029 C.2     1  UNL1        0.0974
     29 C          63.8321   81.7387    9.9437 C.3     1  UNL1        0.0555
     30 C          62.9038   77.4395   10.4061 C.3     1  UNL1        0.2885
     31 O          62.8351   78.9175   10.1589 O.2     1  UNL1       -0.3734
@<TRIPOS>BOND
     1    30    31    1
     2    31    27    1
     3    27    28    2
     4    28    29    1
     5    28     1    1
     6     1     2   ar
     7     2     3   ar
     8     3     4   ar
     9     4     7    1
    10     7     8   ar
    11     8     9   ar
    12     9    10   ar
    13    10    11   ar
    14     4     5   ar
    15     5    12    1
    16    12    13   am
    17    13    14    2
    18    13    16    1
    19    16    17   ar
    20    17    18   ar
    21    18    19   ar
    22    19    21    1
    23    21    22   ar
    24    22    23   ar
    25    23    24   ar
    26    24    25   ar
    27    25    26   ar
    28    19    20   ar
    29     5     6   ar
    30     6     1   ar
    31    11     7   ar
    32    20    16   ar
    33    26    21   ar
    34    12    15    1
@<TRIPOS>MOLECULE
*****
 31 34 0 0 0
SMALL
GASTEIGER

@<TRIPOS>ATOM
      1 C          60.7857   87.2204    9.4046 C.ar    1  UNL1        0.0180
      2 C          60.7922   85.7250    9.5213 C.ar    1  UNL1        0.0029
      3 C          61.6468   85.0573   10.5575 C.ar    1  UNL1        0.0189
      4 C          62.4949   85.8850   11.4771 C.ar    1  UNL1        0.0789
      5 C          62.4884   87.3804   11.3604 C.ar    1  UNL1        0.0670
      6 C          61.6338   88.0481   10.3241 C.ar    1  UNL1        0.0174
      7 N          63.3495   85.2173   12.5133 N.ar    1  UNL1       -0.2852
      8 C          63.7301   85.7915   13.8457 C.ar    1  UNL1        0.1023
      9 C          64.5894   84.7872   14.5550 C.ar    1  UNL1        0.1196
     10 N          64.7399   83.5922   13.6609 N.ar    1  UNL1       -0.2220
     11 C          63.9736   83.8580   12.3991 C.ar    1  UNL1        0.1829
     12 N          63.3365   88.2082   12.2800 N.am    1  UNL1       -0.2788
     13 C          62.7225   89.3371   13.0535 C.2     1  UNL1        0.2571
     14 O          61.2603   89.6383   12.9075 O.2     1  UNL1       -0.2692
     15 H          64.2962   88.0105   12.3758 H       1  UNL1        0.1552
     16 C          63.5706   90.1649   13.9731 C.ar    1  UNL1        0.1035
     17 C          63.1649   90.6789   15.3226 C.ar    1  UNL1        0.1105
     18 N          64.3169   91.4557   15.8882 N.ar    1  UNL1       -0.2366
     19 C          65.4344   91.4216   14.8881 C.ar    1  UNL1        0.1109
     20 S          64.9732   90.6239   13.7046 S.2     1  UNL1       -0.0619
     21 C          66.7773   92.0712   15.0442 C.ar    1  UNL1        0.0238
     22 C          67.0317   93.0011   16.1935 C.ar    1  UNL1        0.0020
     23 C          68.3746   93.6507   16.3496 C.ar    1  UNL1        0.0001
     24 C          69.4633   93.3705   15.3565 C.ar    1  UNL1        0.0000
     25 C          69.2090   92.4407   14.2072 C.ar    1  UNL1        0.0001
     26 C          67.8660   91.7911   14.0512 C.ar    1  UNL1        0.0020
     27 N          60.0712   89.3600    8.1156 N.2     1  UNL1       -0.0873
     28 C          59.9311   87.8881    8.3684 C.2     1  UNL1        0.0974
     29 C          58.9364   87.0840    7.5849 C.3     1  UNL1        0.0555
     30 C          59.7376   90.2161    5.6854 C.3     1  UNL1        0.2885
     31 O          59.2166   90.0277    7.0794 O.2     1  UNL1       -0.3734
@<TRIPOS>BOND
     1    30    31    1
     2    31    27    1
     3    27    28    2
     4    28    29    1
     5    28     1    1
     6     1     2   ar
     7     2     3   ar
     8     3     4   ar
     9     4     7    1
    10     7     8   ar
    11     8     9   ar
    12     9    10   ar
    13    10    11   ar
    14     4     5   ar
    15     5    12    1
    16    12    13   am
    17    13    14    2
    18    13    16    1
    19    16    17   ar
    20    17    18   ar
    21    18    19   ar
    22    19    21    1
    23    21    22   ar
    24    22    23   ar
    25    23    24   ar
    26    24    25   ar
    27    25    26   ar
    28    19    20   ar
    29     5     6   ar
    30     6     1   ar
    31    11     7   ar
    32    20    16   ar
    33    26    21   ar
    34    12    15    1
@<TRIPOS>MOLECULE
*****
 31 34 0 0 0
SMALL
GASTEIGER

@<TRIPOS>ATOM
      1 C          59.7962   88.8241    7.4430 C.ar    1  UNL1        0.0180
      2 C          59.6049   87.3487    7.2513 C.ar    1  UNL1        0.0029
      3 C          60.3001   86.3781    8.1593 C.ar    1  UNL1        0.0189
      4 C          61.1865   86.8827    9.2590 C.ar    1  UNL1        0.0789
      5 C          61.3778   88.3580    9.4508 C.ar    1  UNL1        0.0670
      6 C          60.6826   89.3287    8.5427 C.ar    1  UNL1        0.0174
      7 N          61.8817   85.9120   10.1671 N.ar    1  UNL1       -0.2852
      8 C          62.9016   84.8929    9.7533 C.ar    1  UNL1        0.1023
      9 C          63.3293   84.1410   10.9788 C.ar    1  UNL1        0.1196
     10 N          62.5736   84.6955   12.1500 N.ar    1  UNL1       -0.2220
     11 C          61.6790   85.7900   11.6483 C.ar    1  UNL1        0.1829
     12 N          62.2643   88.8627   10.5506 N.am    1  UNL1       -0.2788
     13 C          61.6640   89.3260   11.8448 C.2     1  UNL1        0.2571
     14 O          60.1772   89.2846   12.0392 O.2     1  UNL1       -0.2692
     15 H          63.2401   88.8899   10.4230 H       1  UNL1        0.1552
     16 C          62.5505   89.8307   12.9446 C.ar    1  UNL1        0.1035
     17 C          62.2884   89.7045   14.4161 C.ar    1  UNL1        0.1105
     18 N          63.4306   90.3460   15.1470 N.ar    1  UNL1       -0.2366
     19 C          64.3985   90.8686   14.1270 C.ar    1  UNL1        0.1109
     20 S          63.8545   90.5501   12.7659 S.2     1  UNL1       -0.0619
     21 C          65.6844   91.5840   14.4173 C.ar    1  UNL1        0.0238
     22 C          65.8834   92.2623   15.7403 C.ar    1  UNL1        0.0020
     23 C          67.1693   92.9777   16.0305 C.ar    1  UNL1        0.0001
     24 C          68.2565   93.0149   14.9978 C.ar    1  UNL1        0.0000
     25 C          68.0577   92.3366   13.6747 C.ar    1  UNL1        0.0001
     26 C          66.7716   91.6212   13.3845 C.ar    1  UNL1        0.0020
     27 N          59.8994   90.8011    5.7605 N.2     1  UNL1       -0.0873
     28 C          59.1010   89.7947    6.5350 C.2     1  UNL1        0.0974
     29 C          57.6074   89.7591    6.4014 C.3     1  UNL1        0.0555
     30 C          59.9685   92.4517    3.7553 C.3     1  UNL1        0.2885
     31 O          59.2043   91.7717    4.8525 O.2     1  UNL1       -0.3734
@<TRIPOS>BOND
     1    30    31    1
     2    31    27    1
     3    27    28    2
     4    28    29    1
     5    28     1    1
     6     1     2   ar
     7     2     3   ar
     8     3     4   ar
     9     4     7    1
    10     7     8   ar
    11     8     9   ar
    12     9    10   ar
    13    10    11   ar
    14     4     5   ar
    15     5    12    1
    16    12    13   am
    17    13    14    2
    18    13    16    1
    19    16    17   ar
    20    17    18   ar
    21    18    19   ar
    22    19    21    1
    23    21    22   ar
    24    22    23   ar
    25    23    24   ar
    26    24    25   ar
    27    25    26   ar
    28    19    20   ar
    29     5     6   ar
    30     6     1   ar
    31    11     7   ar
    32    20    16   ar
    33    26    21   ar
    34    12    15    1
@<TRIPOS>MOLECULE
*****
 31 34 0 0 0
SMALL
GASTEIGER

@<TRIPOS>ATOM
      1 C          65.2513   91.6754   14.3510 C.ar    1  UNL1        0.0180
      2 C          64.6918   91.8832   15.7271 C.ar    1  UNL1        0.0029
      3 C          63.9328   90.7798   16.4027 C.ar    1  UNL1        0.0189
      4 C          63.7332   89.4685   15.7021 C.ar    1  UNL1        0.0789
      5 C          64.2927   89.2607   14.3260 C.ar    1  UNL1        0.0670
      6 C          65.0517   90.3642   13.6504 C.ar    1  UNL1        0.0174
      7 N          62.9742   88.3651   16.3777 N.ar    1  UNL1       -0.2852
      8 C          63.5743   87.2105   17.1237 C.ar    1  UNL1        0.1023
      9 C          62.4528   86.3544   17.6330 C.ar    1  UNL1        0.1196
     10 N          61.1595   86.9799   17.2016 N.ar    1  UNL1       -0.2220
     11 C          61.4818   88.2226   16.4258 C.ar    1  UNL1        0.1829
     12 N          64.0931   87.9495   13.6253 N.am    1  UNL1       -0.2788
     13 C          63.0354   87.8163   12.5701 C.2     1  UNL1        0.2571
     14 O          62.1773   88.9944   12.2155 O.2     1  UNL1       -0.2692
     15 H          64.6563   87.1763   13.8581 H       1  UNL1        0.1552
     16 C          62.8359   86.5050   11.8695 C.ar    1  UNL1        0.1035
     17 C          62.4655   86.3235   10.4273 C.ar    1  UNL1        0.1105
     18 N          62.3724   84.8514   10.1544 N.ar    1  UNL1       -0.2366
     19 C          62.6851   84.1233   11.4281 C.ar    1  UNL1        0.1109
     20 S          62.9716   85.1453   12.4880 S.2     1  UNL1       -0.0619
     21 C          62.7075   82.6346   11.6098 C.ar    1  UNL1        0.0238
     22 C          63.1367   81.7472   10.4791 C.ar    1  UNL1        0.0020
     23 C          63.1591   80.2585   10.6609 C.ar    1  UNL1        0.0001
     24 C          62.7523   79.6570   11.9734 C.ar    1  UNL1        0.0000
     25 C          62.3231   80.5442   13.1042 C.ar    1  UNL1        0.0001
     26 C          62.3007   82.0330   12.9223 C.ar    1  UNL1        0.0020
     27 N          66.0095   92.8827   12.1791 N.2     1  UNL1       -0.0873
     28 C          66.0103   92.7788   13.6754 C.2     1  UNL1        0.0974
     29 C          66.7700   93.7782   14.4962 C.3     1  UNL1        0.0555
     30 C          66.2185   95.3817   11.4997 C.3     1  UNL1        0.2885
     31 O          66.7685   93.9861   11.5035 O.2     1  UNL1       -0.3734
@<TRIPOS>BOND
     1    30    31    1
     2    31    27    1
     3    27    28    2
     4    28    29    1
     5    28     1    1
     6     1     2   ar
     7     2     3   ar
     8     3     4   ar
     9     4     7    1
    10     7     8   ar
    11     8     9   ar
    12     9    10   ar
    13    10    11   ar
    14     4     5   ar
    15     5    12    1
    16    12    13   am
    17    13    14    2
    18    13    16    1
    19    16    17   ar
    20    17    18   ar
    21    18    19   ar
    22    19    21    1
    23    21    22   ar
    24    22    23   ar
    25    23    24   ar
    26    24    25   ar
    27    25    26   ar
    28    19    20   ar
    29     5     6   ar
    30     6     1   ar
    31    11     7   ar
    32    20    16   ar
    33    26    21   ar
    34    12    15    1
@<TRIPOS>MOLECULE
*****
 31 34 0 0 0
SMALL
GASTEIGER

@<TRIPOS>ATOM
      1 C          62.9634   85.3508   12.6956 C.ar    1  UNL1        0.0180
      2 C          61.6737   85.0905   11.9754 C.ar    1  UNL1        0.0029
      3 C          61.0069   86.1940   11.2088 C.ar    1  UNL1        0.0189
      4 C          61.6297   87.5577   11.1625 C.ar    1  UNL1        0.0789
      5 C          62.9194   87.8180   11.8828 C.ar    1  UNL1        0.0670
      6 C          63.5863   86.7145   12.6493 C.ar    1  UNL1        0.0174
      7 N          60.9629   88.6612   10.3959 N.ar    1  UNL1       -0.2852
      8 C          60.6787   88.6649    8.9231 C.ar    1  UNL1        0.1023
      9 C          60.0033   89.9607    8.5845 C.ar    1  UNL1        0.1196
     10 N          59.8700   90.7579    9.8480 N.ar    1  UNL1       -0.2220
     11 C          60.4630   89.9548   10.9675 C.ar    1  UNL1        0.1829
     12 N          63.5423   89.1818   11.8365 N.am    1  UNL1       -0.2788
     13 C          64.1272   89.7818   13.0806 C.2     1  UNL1        0.2571
     14 O          64.0892   89.0181   14.3711 O.2     1  UNL1       -0.2692
     15 H          63.5673   89.6831   10.9896 H       1  UNL1        0.1552
     16 C          64.7501   91.1456   13.0344 C.ar    1  UNL1        0.1035
     17 C          65.1515   91.9722   14.2200 C.ar    1  UNL1        0.1105
     18 N          65.7305   93.2597   13.7128 N.ar    1  UNL1       -0.2366
     19 C          65.6869   93.2288   12.2137 C.ar    1  UNL1        0.1109
     20 S          65.0810   91.9222   11.7944 S.2     1  UNL1       -0.0619
     21 C          66.1651   94.3139   11.2952 C.ar    1  UNL1        0.0238
     22 C          66.7073   93.9653    9.9407 C.ar    1  UNL1        0.0020
     23 C          67.1855   95.0503    9.0222 C.ar    1  UNL1        0.0001
     24 C          67.1217   96.4842    9.4581 C.ar    1  UNL1        0.0000
     25 C          66.5796   96.8329   10.8126 C.ar    1  UNL1        0.0001
     26 C          66.1014   95.7477   11.7311 C.ar    1  UNL1        0.0020
     27 N          63.0380   82.8692   13.4613 N.2     1  UNL1       -0.0873
     28 C          63.6303   84.2473   13.4622 C.2     1  UNL1        0.0974
     29 C          64.8895   84.5219   14.2297 C.3     1  UNL1        0.0555
     30 C          63.3181   80.3383   13.9771 C.3     1  UNL1        0.2885
     31 O          63.7048   81.7658   14.2279 O.2     1  UNL1       -0.3734
@<TRIPOS>BOND
     1    30    31    1
     2    31    27    1
     3    27    28    2
     4    28    29    1
     5    28     1    1
     6     1     2   ar
     7     2     3   ar
     8     3     4   ar
     9     4     7    1
    10     7     8   ar
    11     8     9   ar
    12     9    10   ar
    13    10    11   ar
    14     4     5   ar
    15     5    12    1
    16    12    13   am
    17    13    14    2
    18    13    16    1
    19    16    17   ar
    20    17    18   ar
    21    18    19   ar
    22    19    21    1
    23    21    22   ar
    24    22    23   ar
    25    23    24   ar
    26    24    25   ar
    27    25    26   ar
    28    19    20   ar
    29     5     6   ar
    30     6     1   ar
    31    11     7   ar
    32    20    16   ar
    33    26    21   ar
    34    12    15    1
