@<TRIPOS>MOLECULE
*****
 29 32 0 0 0
SMALL
GASTEIGER

@<TRIPOS>ATOM
      1 C          62.0650   86.0776   10.8037 C.ar    1  UNL1        0.0351
      2 C          61.2951   85.9721    9.5207 C.ar    1  UNL1        0.0030
      3 C          60.9439   87.2118    8.7528 C.ar    1  UNL1        0.0003
      4 C          61.3626   88.5570    9.2678 C.ar    1  UNL1        0.0063
      5 C          62.1324   88.6625   10.5508 C.ar    1  UNL1        0.0740
      6 C          62.5511   90.0076   11.0658 C.ar    1  UNL1        0.2643
      7 O          62.1999   91.2473   10.2978 O.2     1  UNL1       -0.2668
      8 N          63.3210   90.1131   12.3488 N.ar    1  UNL1       -0.2669
      9 C          63.7397   91.4583   12.8638 C.3     1  UNL1        0.1363
     10 C          63.6723   88.8734   13.1168 C.ar    1  UNL1        0.2000
     11 N          63.2536   87.5282   12.6018 N.ar    1  UNL1       -0.2150
     12 C          62.4836   87.4228   11.3187 C.ar    1  UNL1        0.0901
     13 C          62.7147   79.8880   11.6451 C.3     1  UNL1        0.0237
     14 C          62.9761   81.0708   12.5296 C.3     1  UNL1        0.0985
     15 N          63.4972   81.0225   13.9354 N.am    1  UNL1       -0.3004
     16 C          63.6054   82.4316   14.4383 C.2     1  UNL1        0.2438
     17 O          64.0839   82.8483   15.7975 O.2     1  UNL1       -0.2704
     18 C          63.1512   83.3507   13.3434 C.2     1  UNL1        0.0563
     19 C          62.9373   84.7896   12.9775 C.2     1  UNL1        0.0209
     20 C          62.4162   84.8379   11.5718 C.2     1  UNL1        0.0777
     21 N          62.3080   83.4289   11.0689 N.2     1  UNL1       -0.2660
     22 C          62.7622   82.5097   12.1637 C.3     1  UNL1        0.1476
     23 H          63.7277   80.2089   14.4394 H       1  UNL1        0.1498
     24 N          64.4421   88.9789   14.3998 N.pl3   1  UNL1       -0.3074
     25 H          65.3653   89.3210   14.3932 H       1  UNL1        0.1495
     26 C          63.8056   88.5631   15.6928 C.3     1  UNL1        0.0570
     27 C          63.4123   89.9863   15.9569 C.3     1  UNL1        0.0196
     28 C          64.1989   87.1398   15.4288 C.3     1  UNL1        0.0196
     29 C          63.1691   88.1473   16.9859 C.3     1  UNL1        0.0196
@<TRIPOS>BOND
     1    14    13    1
     2    14    15    1
     3    15    16   am
     4    16    17    2
     5    16    18    1
     6    18    19    2
     7    19    20    1
     8    20     1    1
     9     1     2   ar
    10     2     3   ar
    11     3     4   ar
    12     4     5   ar
    13     5     6   ar
    14     6     7    2
    15     6     8   ar
    16     8     9    1
    17     8    10   ar
    18    10    24    1
    19    24    26    1
    20    26    27    1
    21    26    28    1
    22    26    29    1
    23    10    11   ar
    24    11    12   ar
    25    20    21    2
    26    21    22    1
    27    22    14    1
    28    22    18    1
    29    12     1   ar
    30    12     5   ar
    31    15    23    1
    32    24    25    1
@<TRIPOS>MOLECULE
*****
 29 32 0 0 0
SMALL
GASTEIGER

@<TRIPOS>ATOM
      1 C          63.4054   90.1283   12.0832 C.ar    1  UNL1        0.0351
      2 C          62.8067   90.9532   10.9826 C.ar    1  UNL1        0.0030
      3 C          61.9708   90.2974    9.9238 C.ar    1  UNL1        0.0003
      4 C          61.7335   88.8169    9.9655 C.ar    1  UNL1        0.0063
      5 C          62.3322   87.9921   11.0660 C.ar    1  UNL1        0.0740
      6 C          62.0949   86.5116   11.1077 C.ar    1  UNL1        0.2643
      7 O          61.2590   85.8559   10.0489 O.2     1  UNL1       -0.2668
      8 N          62.6936   85.6868   12.2082 N.ar    1  UNL1       -0.2669
      9 C          62.4563   84.2062   12.2499 C.3     1  UNL1        0.1363
     10 C          63.5296   86.3425   13.2672 C.ar    1  UNL1        0.2000
     11 N          63.7668   87.8230   13.2255 N.ar    1  UNL1       -0.2150
     12 C          63.1681   88.6478   12.1248 C.ar    1  UNL1        0.0901
     13 C          68.6566   92.6086   14.4739 C.3     1  UNL1        0.0237
     14 C          67.2768   92.4117   15.0285 C.3     1  UNL1        0.0985
     15 N          66.8143   92.8021   16.4009 N.am    1  UNL1       -0.3004
     16 C          65.3690   92.4216   16.5286 C.2     1  UNL1        0.2438
     17 O          64.5059   92.6300   17.7376 O.2     1  UNL1       -0.2704
     18 C          64.9382   91.7961   15.2351 C.2     1  UNL1        0.0563
     19 C          63.7788   91.1744   14.5145 C.2     1  UNL1        0.0209
     20 C          64.2414   90.7841   13.1421 C.2     1  UNL1        0.0777
     21 N          65.6867   91.1646   13.0144 N.2     1  UNL1       -0.2660
     22 C          66.1174   91.7900   14.3079 C.3     1  UNL1        0.1476
     23 H          67.3630   93.2324   17.0959 H       1  UNL1        0.1498
     24 N          64.1282   85.5177   14.3677 N.pl3   1  UNL1       -0.3074
     25 H          64.9154   84.9543   14.1882 H       1  UNL1        0.1495
     26 C          63.5276   85.5512   15.7418 C.3     1  UNL1        0.0570
     27 C          63.0769   84.1297   15.5795 C.3     1  UNL1        0.0196
     28 C          63.9782   86.9727   15.9041 C.3     1  UNL1        0.0196
     29 C          62.9269   85.5847   17.1159 C.3     1  UNL1        0.0196
@<TRIPOS>BOND
     1    14    13    1
     2    14    15    1
     3    15    16   am
     4    16    17    2
     5    16    18    1
     6    18    19    2
     7    19    20    1
     8    20     1    1
     9     1     2   ar
    10     2     3   ar
    11     3     4   ar
    12     4     5   ar
    13     5     6   ar
    14     6     7    2
    15     6     8   ar
    16     8     9    1
    17     8    10   ar
    18    10    24    1
    19    24    26    1
    20    26    27    1
    21    26    28    1
    22    26    29    1
    23    10    11   ar
    24    11    12   ar
    25    20    21    2
    26    21    22    1
    27    22    14    1
    28    22    18    1
    29    12     1   ar
    30    12     5   ar
    31    15    23    1
    32    24    25    1
@<TRIPOS>MOLECULE
*****
 29 32 0 0 0
SMALL
GASTEIGER

@<TRIPOS>ATOM
      1 C          62.0068   86.1743   10.7714 C.ar    1  UNL1        0.0351
      2 C          61.2210   86.0332    9.5016 C.ar    1  UNL1        0.0030
      3 C          60.8782   87.2489    8.6926 C.ar    1  UNL1        0.0003
      4 C          61.3214   88.6058    9.1535 C.ar    1  UNL1        0.0063
      5 C          62.1072   88.7470   10.4233 C.ar    1  UNL1        0.0740
      6 C          62.5504   90.1039   10.8841 C.ar    1  UNL1        0.2643
      7 O          62.2076   91.3197   10.0752 O.2     1  UNL1       -0.2668
      8 N          63.3362   90.2451   12.1539 N.ar    1  UNL1       -0.2669
      9 C          63.7794   91.6020   12.6148 C.3     1  UNL1        0.1363
     10 C          63.6790   89.0293   12.9630 C.ar    1  UNL1        0.2000
     11 N          63.2359   87.6724   12.5021 N.ar    1  UNL1       -0.2150
     12 C          62.4500   87.5313   11.2322 C.ar    1  UNL1        0.0901
     13 C          63.8548   83.0918   15.9216 C.3     1  UNL1        0.0237
     14 C          63.4540   82.6375   14.5494 C.3     1  UNL1        0.0985
     15 N          63.4045   81.2169   14.0703 N.am    1  UNL1       -0.3004
     16 C          62.9522   81.2255   12.6402 C.2     1  UNL1        0.2438
     17 O          62.7631   80.0199   11.7680 O.2     1  UNL1       -0.2704
     18 C          62.7220   82.6514   12.2354 C.2     1  UNL1        0.0563
     19 C          62.3002   83.5380   11.1013 C.2     1  UNL1        0.0209
     20 C          62.3496   84.9585   11.5804 C.2     1  UNL1        0.0777
     21 N          62.8020   84.9499   13.0105 N.2     1  UNL1       -0.2660
     22 C          63.0321   83.5241   13.4154 C.3     1  UNL1        0.1476
     23 H          63.6295   80.4190   14.6013 H       1  UNL1        0.1498
     24 N          64.4649   89.1705   14.2328 N.pl3   1  UNL1       -0.3074
     25 H          65.3924   89.4992   14.2036 H       1  UNL1        0.1495
     26 C          63.8375   88.8108   15.5470 C.3     1  UNL1        0.0570
     27 C          64.1503   87.3646   15.3004 C.3     1  UNL1        0.0196
     28 C          63.5248   90.2570   15.7935 C.3     1  UNL1        0.0196
     29 C          63.2102   88.4511   16.8611 C.3     1  UNL1        0.0196
@<TRIPOS>BOND
     1    14    13    1
     2    14    15    1
     3    15    16   am
     4    16    17    2
     5    16    18    1
     6    18    19    2
     7    19    20    1
     8    20     1    1
     9     1     2   ar
    10     2     3   ar
    11     3     4   ar
    12     4     5   ar
    13     5     6   ar
    14     6     7    2
    15     6     8   ar
    16     8     9    1
    17     8    10   ar
    18    10    24    1
    19    24    26    1
    20    26    27    1
    21    26    28    1
    22    26    29    1
    23    10    11   ar
    24    11    12   ar
    25    20    21    2
    26    21    22    1
    27    22    14    1
    28    22    18    1
    29    12     1   ar
    30    12     5   ar
    31    15    23    1
    32    24    25    1
@<TRIPOS>MOLECULE
*****
 29 32 0 0 0
SMALL
GASTEIGER

@<TRIPOS>ATOM
      1 C          62.9161   90.0135   11.6871 C.ar    1  UNL1        0.0351
      2 C          62.2048   90.8258   10.6459 C.ar    1  UNL1        0.0030
      3 C          61.3509   90.1449    9.6177 C.ar    1  UNL1        0.0003
      4 C          61.2085   88.6517    9.6306 C.ar    1  UNL1        0.0063
      5 C          61.9198   87.8394   10.6718 C.ar    1  UNL1        0.0740
      6 C          61.7774   86.3463   10.6847 C.ar    1  UNL1        0.2643
      7 O          60.9236   85.6654    9.6564 O.2     1  UNL1       -0.2668
      8 N          62.4887   85.5340   11.7258 N.ar    1  UNL1       -0.2669
      9 C          62.3463   84.0408   11.7388 C.3     1  UNL1        0.1363
     10 C          63.3426   86.2148   12.7542 C.ar    1  UNL1        0.2000
     11 N          63.4851   87.7080   12.7413 N.ar    1  UNL1       -0.2150
     12 C          62.7737   88.5203   11.7000 C.ar    1  UNL1        0.0901
     13 C          64.2801   92.2171   17.4077 C.3     1  UNL1        0.0237
     14 C          65.0319   92.2136   16.1098 C.3     1  UNL1        0.0985
     15 N          66.3977   92.7897   15.8804 N.am    1  UNL1       -0.3004
     16 C          66.7598   92.5655   14.4421 C.2     1  UNL1        0.2438
     17 O          68.0393   92.9827   13.7796 O.2     1  UNL1       -0.2704
     18 C          65.6178   91.8507   13.7826 C.2     1  UNL1        0.0563
     19 C          65.1358   91.2704   12.4861 C.2     1  UNL1        0.0209
     20 C          63.7700   90.6943   12.7155 C.2     1  UNL1        0.0777
     21 N          63.4079   90.9185   14.1538 N.2     1  UNL1       -0.2660
     22 C          64.5499   91.6333   14.8133 C.3     1  UNL1        0.1476
     23 H          66.9581   93.2365   16.5553 H       1  UNL1        0.1498
     24 N          64.0540   85.4025   13.7954 N.pl3   1  UNL1       -0.3074
     25 H          64.7169   84.7269   13.5245 H       1  UNL1        0.1495
     26 C          63.7553   85.6195   15.2492 C.3     1  UNL1        0.0570
     27 C          64.7193   86.7684   15.2758 C.3     1  UNL1        0.0196
     28 C          62.7913   84.4706   15.2227 C.3     1  UNL1        0.0196
     29 C          63.4566   85.8365   16.7031 C.3     1  UNL1        0.0196
@<TRIPOS>BOND
     1    14    13    1
     2    14    15    1
     3    15    16   am
     4    16    17    2
     5    16    18    1
     6    18    19    2
     7    19    20    1
     8    20     1    1
     9     1     2   ar
    10     2     3   ar
    11     3     4   ar
    12     4     5   ar
    13     5     6   ar
    14     6     7    2
    15     6     8   ar
    16     8     9    1
    17     8    10   ar
    18    10    24    1
    19    24    26    1
    20    26    27    1
    21    26    28    1
    22    26    29    1
    23    10    11   ar
    24    11    12   ar
    25    20    21    2
    26    21    22    1
    27    22    14    1
    28    22    18    1
    29    12     1   ar
    30    12     5   ar
    31    15    23    1
    32    24    25    1
@<TRIPOS>MOLECULE
*****
 29 32 0 0 0
SMALL
GASTEIGER

@<TRIPOS>ATOM
      1 C          63.5755   87.2483   14.9435 C.ar    1  UNL1        0.0351
      2 C          63.5359   87.2593   16.4429 C.ar    1  UNL1        0.0030
      3 C          63.2368   85.9961   17.1945 C.ar    1  UNL1        0.0003
      4 C          62.9773   84.7220   16.4467 C.ar    1  UNL1        0.0063
      5 C          63.0169   84.7110   14.9473 C.ar    1  UNL1        0.0740
      6 C          62.7573   83.4369   14.1994 C.ar    1  UNL1        0.2643
      7 O          62.4582   82.1737   14.9510 O.2     1  UNL1       -0.2668
      8 N          62.7969   83.4259   12.7000 N.ar    1  UNL1       -0.2669
      9 C          62.5374   82.1518   11.9522 C.3     1  UNL1        0.1363
     10 C          63.0961   84.6891   11.9484 C.ar    1  UNL1        0.2000
     11 N          63.3556   85.9632   12.6962 N.ar    1  UNL1       -0.2150
     12 C          63.3160   85.9742   14.1957 C.ar    1  UNL1        0.0901
     13 C          63.0943   91.2761   10.1490 C.3     1  UNL1        0.0237
     14 C          63.8759   91.3023   11.4290 C.3     1  UNL1        0.0985
     15 N          64.7952   92.3990   11.8784 N.am    1  UNL1       -0.3004
     16 C          65.3629   92.0108   13.2115 C.2     1  UNL1        0.2438
     17 O          66.3294   92.8177   14.0269 O.2     1  UNL1       -0.2704
     18 C          64.7945   90.6742   13.5859 C.2     1  UNL1        0.0563
     19 C          64.7940   89.6082   14.6412 C.2     1  UNL1        0.0209
     20 C          63.8747   88.5115   14.1918 C.2     1  UNL1        0.0777
     21 N          63.3070   88.8996   12.8587 N.2     1  UNL1       -0.2660
     22 C          63.8754   90.2363   12.4842 C.3     1  UNL1        0.1476
     23 H          64.9915   93.2281   11.3850 H       1  UNL1        0.1498
     24 N          63.1356   84.6781   10.4490 N.pl3   1  UNL1       -0.3074
     25 H          63.7312   84.0523    9.9768 H       1  UNL1        0.1495
     26 C          62.2679   85.6206    9.6688 C.3     1  UNL1        0.0570
     27 C          63.1166   85.3956    8.4527 C.3     1  UNL1        0.0196
     28 C          61.4191   85.8457   10.8849 C.3     1  UNL1        0.0196
     29 C          61.4001   86.5631    8.8887 C.3     1  UNL1        0.0196
@<TRIPOS>BOND
     1    14    13    1
     2    14    15    1
     3    15    16   am
     4    16    17    2
     5    16    18    1
     6    18    19    2
     7    19    20    1
     8    20     1    1
     9     1     2   ar
    10     2     3   ar
    11     3     4   ar
    12     4     5   ar
    13     5     6   ar
    14     6     7    2
    15     6     8   ar
    16     8     9    1
    17     8    10   ar
    18    10    24    1
    19    24    26    1
    20    26    27    1
    21    26    28    1
    22    26    29    1
    23    10    11   ar
    24    11    12   ar
    25    20    21    2
    26    21    22    1
    27    22    14    1
    28    22    18    1
    29    12     1   ar
    30    12     5   ar
    31    15    23    1
    32    24    25    1
@<TRIPOS>MOLECULE
*****
 29 32 0 0 0
SMALL
GASTEIGER

@<TRIPOS>ATOM
      1 C          62.3004   86.5448   10.7557 C.ar    1  UNL1        0.0351
      2 C          61.6881   86.8778    9.4275 C.ar    1  UNL1        0.0030
      3 C          61.5453   88.3101    9.0055 C.ar    1  UNL1        0.0003
      4 C          62.0148   89.4093    9.9117 C.ar    1  UNL1        0.0063
      5 C          62.6271   89.0763   11.2399 C.ar    1  UNL1        0.0740
      6 C          63.0966   90.1756   12.1461 C.ar    1  UNL1        0.2643
      7 O          62.9538   91.6079   11.7240 O.2     1  UNL1       -0.2668
      8 N          63.7089   89.8426   13.4743 N.ar    1  UNL1       -0.2669
      9 C          64.1784   90.9419   14.3804 C.3     1  UNL1        0.1363
     10 C          63.8517   88.4102   13.8963 C.ar    1  UNL1        0.2000
     11 N          63.3822   87.3110   12.9902 N.ar    1  UNL1       -0.2150
     12 C          62.7699   87.6440   11.6619 C.ar    1  UNL1        0.0901
     13 C          62.3062   81.7850   14.8528 C.3     1  UNL1        0.0237
     14 C          62.5521   81.8594   13.3750 C.3     1  UNL1        0.0985
     15 N          62.8827   80.7043   12.4769 N.am    1  UNL1       -0.3004
     16 C          63.0454   81.2330   11.0826 C.2     1  UNL1        0.2438
     17 O          63.3795   80.4223    9.8657 O.2     1  UNL1       -0.2704
     18 C          62.8154   82.7148   11.1190 C.2     1  UNL1        0.0563
     19 C          62.7738   83.9574   10.2797 C.2     1  UNL1        0.0209
     20 C          62.4432   85.1124   11.1778 C.2     1  UNL1        0.0777
     21 N          62.2805   84.5837   12.5721 N.2     1  UNL1       -0.2660
     22 C          62.5105   83.1019   12.5358 C.3     1  UNL1        0.1476
     23 H          62.9764   79.7643   12.7540 H       1  UNL1        0.1498
     24 N          64.4640   88.0772   15.2245 N.pl3   1  UNL1       -0.3074
     25 H          65.3745   88.3850   15.4379 H       1  UNL1        0.1495
     26 C          63.6891   87.2753   16.2277 C.3     1  UNL1        0.0570
     27 C          64.2459   86.0097   15.6461 C.3     1  UNL1        0.0196
     28 C          63.1323   88.5409   16.8093 C.3     1  UNL1        0.0196
     29 C          62.9141   86.4734   17.2309 C.3     1  UNL1        0.0196
@<TRIPOS>BOND
     1    14    13    1
     2    14    15    1
     3    15    16   am
     4    16    17    2
     5    16    18    1
     6    18    19    2
     7    19    20    1
     8    20     1    1
     9     1     2   ar
    10     2     3   ar
    11     3     4   ar
    12     4     5   ar
    13     5     6   ar
    14     6     7    2
    15     6     8   ar
    16     8     9    1
    17     8    10   ar
    18    10    24    1
    19    24    26    1
    20    26    27    1
    21    26    28    1
    22    26    29    1
    23    10    11   ar
    24    11    12   ar
    25    20    21    2
    26    21    22    1
    27    22    14    1
    28    22    18    1
    29    12     1   ar
    30    12     5   ar
    31    15    23    1
    32    24    25    1
@<TRIPOS>MOLECULE
*****
 29 32 0 0 0
SMALL
GASTEIGER

@<TRIPOS>ATOM
      1 C          63.5728   86.0336   13.3982 C.ar    1  UNL1        0.0351
      2 C          64.4130   86.3790   14.5918 C.ar    1  UNL1        0.0030
      3 C          64.7259   87.8134   14.8990 C.ar    1  UNL1        0.0003
      4 C          64.1986   88.9025   14.0125 C.ar    1  UNL1        0.0063
      5 C          63.3585   88.5572   12.8189 C.ar    1  UNL1        0.0740
      6 C          62.8312   89.6463   11.9324 C.ar    1  UNL1        0.2643
      7 O          63.1441   91.0807   12.2396 O.2     1  UNL1       -0.2668
      8 N          61.9911   89.3010   10.7388 N.ar    1  UNL1       -0.2669
      9 C          61.4638   90.3901    9.8523 C.3     1  UNL1        0.1363
     10 C          61.6781   87.8665   10.4315 C.ar    1  UNL1        0.2000
     11 N          62.2053   86.7773   11.3180 N.ar    1  UNL1       -0.2150
     12 C          63.0456   87.1227   12.5117 C.ar    1  UNL1        0.0901
     13 C          60.9813   80.4126   14.4613 C.3     1  UNL1        0.0237
     14 C          61.8359   80.9486   13.3512 C.3     1  UNL1        0.0985
     15 N          62.2966   80.1843   12.1456 N.am    1  UNL1       -0.3004
     16 C          63.1253   81.1063   11.3011 C.2     1  UNL1        0.2438
     17 O          63.7865   80.7557   10.0011 O.2     1  UNL1       -0.2704
     18 C          63.1767   82.4404   11.9847 C.2     1  UNL1        0.0563
     19 C          63.7206   83.8348   11.8853 C.2     1  UNL1        0.0209
     20 C          63.2599   84.5991   13.0910 C.2     1  UNL1        0.0777
     21 N          62.4312   83.6771   13.9355 N.2     1  UNL1       -0.2660
     22 C          62.3798   82.3429   13.2518 C.3     1  UNL1        0.1476
     23 H          62.0912   79.2428   11.9440 H       1  UNL1        0.1498
     24 N          60.8379   87.5211    9.2379 N.pl3   1  UNL1       -0.3074
     25 H          60.0232   88.0384    9.0432 H       1  UNL1        0.1495
     26 C          61.2390   86.3877    8.3410 C.3     1  UNL1        0.0570
     27 C          59.8267   86.2783    7.8477 C.3     1  UNL1        0.0196
     28 C          62.6514   86.4971    8.8343 C.3     1  UNL1        0.0196
     29 C          61.6401   85.2543    7.4441 C.3     1  UNL1        0.0196
@<TRIPOS>BOND
     1    14    13    1
     2    14    15    1
     3    15    16   am
     4    16    17    2
     5    16    18    1
     6    18    19    2
     7    19    20    1
     8    20     1    1
     9     1     2   ar
    10     2     3   ar
    11     3     4   ar
    12     4     5   ar
    13     5     6   ar
    14     6     7    2
    15     6     8   ar
    16     8     9    1
    17     8    10   ar
    18    10    24    1
    19    24    26    1
    20    26    27    1
    21    26    28    1
    22    26    29    1
    23    10    11   ar
    24    11    12   ar
    25    20    21    2
    26    21    22    1
    27    22    14    1
    28    22    18    1
    29    12     1   ar
    30    12     5   ar
    31    15    23    1
    32    24    25    1
@<TRIPOS>MOLECULE
*****
 29 32 0 0 0
SMALL
GASTEIGER

@<TRIPOS>ATOM
      1 C          63.6314   87.6715   14.9588 C.ar    1  UNL1        0.0351
      2 C          63.5751   87.7462   16.4558 C.ar    1  UNL1        0.0030
      3 C          63.2426   86.5218   17.2559 C.ar    1  UNL1        0.0003
      4 C          62.9665   85.2226   16.5589 C.ar    1  UNL1        0.0063
      5 C          63.0229   85.1478   15.0619 C.ar    1  UNL1        0.0740
      6 C          62.7468   83.8485   14.3649 C.ar    1  UNL1        0.2643
      7 O          62.4144   82.6241   15.1649 O.2     1  UNL1       -0.2668
      8 N          62.8032   83.7738   12.8678 N.ar    1  UNL1       -0.2669
      9 C          62.5271   82.4745   12.1709 C.3     1  UNL1        0.1363
     10 C          63.1357   84.9982   12.0677 C.ar    1  UNL1        0.2000
     11 N          63.4117   86.2975   12.7647 N.ar    1  UNL1       -0.2150
     12 C          63.3554   86.3722   14.2618 C.ar    1  UNL1        0.0901
     13 C          66.5837   93.0915   13.7971 C.3     1  UNL1        0.0237
     14 C          65.5682   92.2979   13.0296 C.3     1  UNL1        0.0985
     15 N          64.9872   92.6645   11.6962 N.am    1  UNL1       -0.3004
     16 C          64.0153   91.5915   11.3033 C.2     1  UNL1        0.2438
     17 O          63.2052   91.5547   10.0414 O.2     1  UNL1       -0.2704
     18 C          63.9956   90.5619   12.3939 C.2     1  UNL1        0.0563
     19 C          63.3829   89.2625   12.8252 C.2     1  UNL1        0.0209
     20 C          63.9639   88.8959   14.1586 C.2     1  UNL1        0.0777
     21 N          64.9358   89.9689   14.5515 N.2     1  UNL1       -0.2660
     22 C          64.9554   90.9985   13.4609 C.3     1  UNL1        0.1476
     23 H          65.2054   93.4681   11.1711 H       1  UNL1        0.1498
     24 N          63.1920   84.9235   10.5707 N.pl3   1  UNL1       -0.3074
     25 H          63.8782   84.3711   10.1309 H       1  UNL1        0.1495
     26 C          62.2031   85.6902    9.7436 C.3     1  UNL1        0.0570
     27 C          61.3946   85.9751   10.9746 C.3     1  UNL1        0.0196
     28 C          63.0116   85.4054    8.5127 C.3     1  UNL1        0.0196
     29 C          61.2141   86.4570    8.9166 C.3     1  UNL1        0.0196
@<TRIPOS>BOND
     1    14    13    1
     2    14    15    1
     3    15    16   am
     4    16    17    2
     5    16    18    1
     6    18    19    2
     7    19    20    1
     8    20     1    1
     9     1     2   ar
    10     2     3   ar
    11     3     4   ar
    12     4     5   ar
    13     5     6   ar
    14     6     7    2
    15     6     8   ar
    16     8     9    1
    17     8    10   ar
    18    10    24    1
    19    24    26    1
    20    26    27    1
    21    26    28    1
    22    26    29    1
    23    10    11   ar
    24    11    12   ar
    25    20    21    2
    26    21    22    1
    27    22    14    1
    28    22    18    1
    29    12     1   ar
    30    12     5   ar
    31    15    23    1
    32    24    25    1
@<TRIPOS>MOLECULE
*****
 29 32 0 0 0
SMALL
GASTEIGER

@<TRIPOS>ATOM
      1 C          62.5983   88.2378   11.5980 C.ar    1  UNL1        0.0351
      2 C          63.0550   89.6186   11.9650 C.ar    1  UNL1        0.0030
      3 C          63.8892   89.8309   13.1934 C.ar    1  UNL1        0.0003
      4 C          64.2668   88.6623   14.0547 C.ar    1  UNL1        0.0063
      5 C          63.8102   87.2815   13.6876 C.ar    1  UNL1        0.0740
      6 C          64.1879   86.1129   14.5490 C.ar    1  UNL1        0.2643
      7 O          65.0221   86.3252   15.7773 O.2     1  UNL1       -0.2668
      8 N          63.7312   84.7321   14.1819 N.ar    1  UNL1       -0.2669
      9 C          64.1089   83.5635   15.0432 C.3     1  UNL1        0.1363
     10 C          62.8969   84.5198   12.9535 C.ar    1  UNL1        0.2000
     11 N          62.5193   85.6884   12.0922 N.ar    1  UNL1       -0.2150
     12 C          62.9760   87.0692   12.4593 C.ar    1  UNL1        0.0901
     13 C          58.7841   89.9915    6.9270 C.3     1  UNL1        0.0237
     14 C          59.3903   88.6737    7.3090 C.3     1  UNL1        0.0985
     15 N          59.1964   87.3722    6.5890 N.am    1  UNL1       -0.3004
     16 C          59.9832   86.3202    7.3130 C.2     1  UNL1        0.2438
     17 O          60.0739   84.8713    6.9358 O.2     1  UNL1       -0.2704
     18 C          60.6635   86.9715    8.4805 C.2     1  UNL1        0.0563
     19 C          61.5701   86.7240    9.6496 C.2     1  UNL1        0.0209
     20 C          61.7640   88.0255   10.3696 C.2     1  UNL1        0.0777
     21 N          60.9772   89.0775    9.6455 N.2     1  UNL1       -0.2660
     22 C          60.2970   88.4262    8.4780 C.3     1  UNL1        0.1476
     23 H          58.6488   87.2329    5.7828 H       1  UNL1        0.1498
     24 N          62.4403   83.1390   12.5864 N.pl3   1  UNL1       -0.3074
     25 H          61.6614   82.7416   13.0388 H       1  UNL1        0.1495
     26 C          63.1704   82.3636   11.5301 C.3     1  UNL1        0.0570
     27 C          62.8718   81.0878   12.2602 C.3     1  UNL1        0.0196
     28 C          63.4691   83.6394   10.8000 C.3     1  UNL1        0.0196
     29 C          63.9005   81.5882   10.4738 C.3     1  UNL1        0.0196
@<TRIPOS>BOND
     1    14    13    1
     2    14    15    1
     3    15    16   am
     4    16    17    2
     5    16    18    1
     6    18    19    2
     7    19    20    1
     8    20     1    1
     9     1     2   ar
    10     2     3   ar
    11     3     4   ar
    12     4     5   ar
    13     5     6   ar
    14     6     7    2
    15     6     8   ar
    16     8     9    1
    17     8    10   ar
    18    10    24    1
    19    24    26    1
    20    26    27    1
    21    26    28    1
    22    26    29    1
    23    10    11   ar
    24    11    12   ar
    25    20    21    2
    26    21    22    1
    27    22    14    1
    28    22    18    1
    29    12     1   ar
    30    12     5   ar
    31    15    23    1
    32    24    25    1
