@<TRIPOS>MOLECULE
*****
 40 44 0 0 0
SMALL
GASTEIGER

@<TRIPOS>ATOM
      1 C          58.8644   91.3798    4.9294 C.ar    1  UNL1       -0.0025
      2 C          57.9009   90.5576    5.7329 C.ar    1  UNL1       -0.0014
      3 C          58.4144   89.5729    6.7412 C.ar    1  UNL1        0.0142
      4 C          59.8914   89.4104    6.9462 C.ar    1  UNL1        0.0479
      5 C          60.8549   90.2326    6.1427 C.ar    1  UNL1        0.0142
      6 C          60.3415   91.2173    5.1343 C.ar    1  UNL1       -0.0014
      7 N          60.4049   88.4257    7.9545 N.pl3   1  UNL1       -0.3041
      8 C          60.2360   86.9540    7.7190 C.3     1  UNL1        0.1122
      9 C          60.7495   85.9693    8.7273 C.3     1  UNL1        0.1122
     10 N          61.4318   86.4564    9.9712 N.pl3   1  UNL1       -0.3041
     11 C          61.6007   87.9281   10.2067 C.3     1  UNL1        0.1122
     12 C          61.0872   88.9128    9.1984 C.3     1  UNL1        0.1122
     13 C          61.9452   85.4717   10.9796 C.ar    1  UNL1        0.0481
     14 C          62.3307   84.0880   10.5477 C.ar    1  UNL1        0.0176
     15 C          62.8442   83.1033   11.5561 C.ar    1  UNL1        0.0385
     16 C          62.9721   83.5024   12.9963 C.ar    1  UNL1        0.1469
     17 C          62.5867   84.8862   13.4282 C.ar    1  UNL1        0.0385
     18 C          62.0732   85.8708   12.4198 C.ar    1  UNL1        0.0176
     19 O          63.4856   82.5177   14.0047 O.3     1  UNL1       -0.4045
     20 C          63.0112   81.0951   13.9727 C.3     1  UNL1        0.5753
     21 F          62.5368   79.6725   13.9406 F       1  UNL1       -0.1328
     22 F          64.3210   80.6718   13.3767 F       1  UNL1       -0.1328
     23 F          61.7014   81.5184   14.5687 F       1  UNL1       -0.1328
     24 C          58.3510   92.3644    3.9211 C.3     1  UNL1        0.1166
     25 C          59.8051   93.4878    2.0844 C.2     1  UNL1        0.2635
     26 O          60.1459   94.5983    3.0334 O.2     1  UNL1       -0.2685
     27 N          58.9077   92.3709    2.5282 N.am    1  UNL1       -0.2957
     28 H          58.6840   91.6420    1.9053 H       1  UNL1        0.1501
     29 C          61.8149   93.4454    0.3226 C.ar    1  UNL1        0.0811
     30 N          61.9143   93.4717   -1.1739 N.ar    1  UNL1       -0.2306
     31 C          60.5226   93.5367   -1.7298 C.ar    1  UNL1        0.1475
     32 C          60.0051   93.5850   -3.1369 C.ar    1  UNL1        0.0383
     33 C          58.5282   93.6473   -3.3910 C.ar    1  UNL1        0.0160
     34 C          57.5687   93.6612   -2.2381 C.ar    1  UNL1        0.0753
     35 CL         56.0916   93.7235   -2.4923 Cl      1  UNL1       -0.0807
     36 C          58.0862   93.6129   -0.8311 C.ar    1  UNL1        0.0929
     37 N          59.5631   93.5506   -0.5769 N.ar    1  UNL1       -0.2845
     38 C          60.3618   93.4942    0.6915 C.ar    1  UNL1        0.1326
     39 C          63.1407   92.1824    2.1657 C.3     1  UNL1        0.0067
     40 C          62.9665   93.3816    1.2817 C.3     1  UNL1        0.0475
@<TRIPOS>BOND
     1    39    40    1
     2    40    29    1
     3    29    30   ar
     4    30    31   ar
     5    31    32   ar
     6    32    33   ar
     7    33    34   ar
     8    34    35    1
     9    34    36   ar
    10    36    37   ar
    11    37    38   ar
    12    38    25    1
    13    25    26    2
    14    25    27   am
    15    27    24    1
    16    24     1    1
    17     1     2   ar
    18     2     3   ar
    19     3     4   ar
    20     4     7    1
    21     7     8    1
    22     8     9    1
    23     9    10    1
    24    10    13    1
    25    13    14   ar
    26    14    15   ar
    27    15    16   ar
    28    16    19    1
    29    19    20    1
    30    20    21    1
    31    20    22    1
    32    20    23    1
    33    16    17   ar
    34    17    18   ar
    35    10    11    1
    36    11    12    1
    37     4     5   ar
    38     5     6   ar
    39    38    29   ar
    40     6     1   ar
    41    37    31   ar
    42    12     7    1
    43    18    13   ar
    44    27    28    1
@<TRIPOS>MOLECULE
*****
 40 44 0 0 0
SMALL
GASTEIGER

@<TRIPOS>ATOM
      1 C          58.8841   91.4593    4.8655 C.ar    1  UNL1       -0.0025
      2 C          57.9160   90.7056    5.7284 C.ar    1  UNL1       -0.0014
      3 C          58.4222   89.7181    6.7376 C.ar    1  UNL1        0.0142
      4 C          59.8967   89.4843    6.8840 C.ar    1  UNL1        0.0479
      5 C          60.8648   90.2380    6.0211 C.ar    1  UNL1        0.0142
      6 C          60.3586   91.2255    5.0119 C.ar    1  UNL1       -0.0014
      7 N          60.4029   88.4968    7.8932 N.pl3   1  UNL1       -0.3041
      8 C          60.2750   87.0252    7.6322 C.3     1  UNL1        0.1122
      9 C          60.7812   86.0377    8.6414 C.3     1  UNL1        0.1122
     10 N          61.4153   86.5217    9.9117 N.pl3   1  UNL1       -0.3041
     11 C          61.5432   87.9933   10.1727 C.3     1  UNL1        0.1122
     12 C          61.0370   88.9808    9.1635 C.3     1  UNL1        0.1122
     13 C          61.9215   85.5342   10.9209 C.ar    1  UNL1        0.0481
     14 C          62.2652   84.1372   10.4964 C.ar    1  UNL1        0.0176
     15 C          62.7714   83.1497   11.5056 C.ar    1  UNL1        0.0385
     16 C          62.9340   83.5592   12.9395 C.ar    1  UNL1        0.1469
     17 C          62.5903   84.9562   13.3640 C.ar    1  UNL1        0.0385
     18 C          62.0841   85.9437   12.3547 C.ar    1  UNL1        0.0176
     19 O          63.4402   82.5717   13.9487 O.3     1  UNL1       -0.4045
     20 C          62.9916   81.1416   13.8891 C.3     1  UNL1        0.5753
     21 F          62.5429   79.7115   13.8295 F       1  UNL1       -0.1328
     22 F          64.3348   80.7426   13.3539 F       1  UNL1       -0.1328
     23 F          61.6483   81.5407   14.4242 F       1  UNL1       -0.1328
     24 C          58.3779   92.4468    3.8563 C.3     1  UNL1        0.1166
     25 C          59.6521   93.5138    1.8593 C.2     1  UNL1        0.2635
     26 O          59.9684   94.7136    2.7022 O.2     1  UNL1       -0.2685
     27 N          58.8569   92.3805    2.4363 N.am    1  UNL1       -0.2957
     28 H          58.6493   91.5930    1.8831 H       1  UNL1        0.1501
     29 C          59.2661   93.2957   -0.7767 C.ar    1  UNL1        0.0811
     30 N          60.1596   93.2756   -1.9814 N.ar    1  UNL1       -0.2306
     31 C          61.5768   93.4149   -1.5099 C.ar    1  UNL1        0.1475
     32 C          62.8809   93.4587   -2.2496 C.ar    1  UNL1        0.0383
     33 C          64.1675   93.6087   -1.4931 C.ar    1  UNL1        0.0160
     34 C          64.1498   93.7149    0.0030 C.ar    1  UNL1        0.0753
     35 CL         65.4365   93.8649    0.7595 Cl      1  UNL1       -0.0807
     36 C          62.8457   93.6710    0.7427 C.ar    1  UNL1        0.0929
     37 N          61.5591   93.5210   -0.0137 N.ar    1  UNL1       -0.2845
     38 C          60.1311   93.4474    0.4393 C.ar    1  UNL1        0.1326
     39 C          56.9321   94.3684   -1.1657 C.3     1  UNL1        0.0067
     40 C          57.7703   93.1838   -0.7864 C.3     1  UNL1        0.0475
@<TRIPOS>BOND
     1    39    40    1
     2    40    29    1
     3    29    30   ar
     4    30    31   ar
     5    31    32   ar
     6    32    33   ar
     7    33    34   ar
     8    34    35    1
     9    34    36   ar
    10    36    37   ar
    11    37    38   ar
    12    38    25    1
    13    25    26    2
    14    25    27   am
    15    27    24    1
    16    24     1    1
    17     1     2   ar
    18     2     3   ar
    19     3     4   ar
    20     4     7    1
    21     7     8    1
    22     8     9    1
    23     9    10    1
    24    10    13    1
    25    13    14   ar
    26    14    15   ar
    27    15    16   ar
    28    16    19    1
    29    19    20    1
    30    20    21    1
    31    20    22    1
    32    20    23    1
    33    16    17   ar
    34    17    18   ar
    35    10    11    1
    36    11    12    1
    37     4     5   ar
    38     5     6   ar
    39    38    29   ar
    40     6     1   ar
    41    37    31   ar
    42    12     7    1
    43    18    13   ar
    44    27    28    1
@<TRIPOS>MOLECULE
*****
 40 44 0 0 0
SMALL
GASTEIGER

@<TRIPOS>ATOM
      1 C          59.9814   87.4768    8.9230 C.ar    1  UNL1       -0.0025
      2 C          60.4706   88.8767    9.1490 C.ar    1  UNL1       -0.0014
      3 C          60.4179   89.8788    8.0340 C.ar    1  UNL1        0.0142
      4 C          59.8761   89.4810    6.6931 C.ar    1  UNL1        0.0479
      5 C          59.3869   88.0812    6.4671 C.ar    1  UNL1        0.0142
      6 C          59.4396   87.0791    7.5820 C.ar    1  UNL1       -0.0014
      7 N          59.8235   90.4831    5.5781 N.pl3   1  UNL1       -0.3041
      8 C          58.5146   91.1036    5.1887 C.3     1  UNL1        0.1122
      9 C          58.4620   92.1057    4.0737 C.3     1  UNL1        0.1122
     10 N          59.7183   92.4873    3.3483 N.pl3   1  UNL1       -0.3041
     11 C          61.0272   91.8667    3.7378 C.3     1  UNL1        0.1122
     12 C          61.0798   90.8647    4.8527 C.3     1  UNL1        0.1122
     13 C          59.6656   93.4894    2.2334 C.ar    1  UNL1        0.0481
     14 C          59.0664   93.1101    0.9117 C.ar    1  UNL1        0.0176
     15 C          59.0138   94.1122   -0.2032 C.ar    1  UNL1        0.0385
     16 C          59.5604   95.4936    0.0036 C.ar    1  UNL1        0.1469
     17 C          60.1596   95.8729    1.3253 C.ar    1  UNL1        0.0385
     18 C          60.2123   94.8708    2.4402 C.ar    1  UNL1        0.0176
     19 O          59.5078   96.4957   -1.1113 O.3     1  UNL1       -0.4045
     20 C          58.3982   96.4389   -2.1190 C.3     1  UNL1        0.5753
     21 F          57.2885   96.3821   -3.1267 F       1  UNL1       -0.1328
     22 F          59.3785   96.0223   -3.1751 F       1  UNL1       -0.1328
     23 F          57.4178   96.8555   -1.0629 F       1  UNL1       -0.1328
     24 C          60.0340   86.4747   10.0379 C.3     1  UNL1        0.1166
     25 C          62.1814   86.0581   11.4397 C.2     1  UNL1        0.2635
     26 O          62.6689   85.0881   10.4045 O.2     1  UNL1       -0.2685
     27 N          60.8640   86.7513   11.2564 N.am    1  UNL1       -0.2957
     28 H          60.5440   87.3879   11.9358 H       1  UNL1        0.1501
     29 C          63.4890   85.3154   13.6496 C.ar    1  UNL1        0.0811
     30 N          64.2822   86.0299   14.7033 N.ar    1  UNL1       -0.2306
     31 C          64.2947   87.4908   14.3632 C.ar    1  UNL1        0.1475
     32 C          64.9198   88.6738   15.0411 C.ar    1  UNL1        0.0383
     33 C          64.7594   90.0452   14.4551 C.ar    1  UNL1        0.0160
     34 C          63.9739   90.2336   13.1911 C.ar    1  UNL1        0.0753
     35 CL         63.8135   91.6051   12.6051 Cl      1  UNL1       -0.0807
     36 C          63.3488   89.0505   12.5132 C.ar    1  UNL1        0.0929
     37 N          63.5092   87.6791   13.0992 N.ar    1  UNL1       -0.2845
     38 C          63.0113   86.3347   12.6582 C.ar    1  UNL1        0.1326
     39 C          62.4358   83.1811   14.6915 C.3     1  UNL1        0.0067
     40 C          63.2207   83.8405   13.5965 C.3     1  UNL1        0.0475
@<TRIPOS>BOND
     1    39    40    1
     2    40    29    1
     3    29    30   ar
     4    30    31   ar
     5    31    32   ar
     6    32    33   ar
     7    33    34   ar
     8    34    35    1
     9    34    36   ar
    10    36    37   ar
    11    37    38   ar
    12    38    25    1
    13    25    26    2
    14    25    27   am
    15    27    24    1
    16    24     1    1
    17     1     2   ar
    18     2     3   ar
    19     3     4   ar
    20     4     7    1
    21     7     8    1
    22     8     9    1
    23     9    10    1
    24    10    13    1
    25    13    14   ar
    26    14    15   ar
    27    15    16   ar
    28    16    19    1
    29    19    20    1
    30    20    21    1
    31    20    22    1
    32    20    23    1
    33    16    17   ar
    34    17    18   ar
    35    10    11    1
    36    11    12    1
    37     4     5   ar
    38     5     6   ar
    39    38    29   ar
    40     6     1   ar
    41    37    31   ar
    42    12     7    1
    43    18    13   ar
    44    27    28    1
@<TRIPOS>MOLECULE
*****
 40 44 0 0 0
SMALL
GASTEIGER

@<TRIPOS>ATOM
      1 C          59.6778   87.7541    8.8476 C.ar    1  UNL1       -0.0025
      2 C          60.1640   89.1523    9.0896 C.ar    1  UNL1       -0.0014
      3 C          60.2012   90.1394    7.9608 C.ar    1  UNL1        0.0142
      4 C          59.7521   89.7283    6.5899 C.ar    1  UNL1        0.0479
      5 C          59.2660   88.3301    6.3479 C.ar    1  UNL1        0.0142
      6 C          59.2288   87.3430    7.4767 C.ar    1  UNL1       -0.0014
      7 N          59.7893   90.7154    5.4611 N.pl3   1  UNL1       -0.3041
      8 C          61.0845   91.0086    4.7635 C.3     1  UNL1        0.1122
      9 C          61.1217   91.9957    3.6347 C.3     1  UNL1        0.1122
     10 N          59.8637   92.6896    3.2035 N.pl3   1  UNL1       -0.3041
     11 C          58.5686   92.3965    3.9010 C.3     1  UNL1        0.1122
     12 C          58.5314   91.4094    5.0298 C.3     1  UNL1        0.1122
     13 C          59.9009   93.6767    2.0746 C.ar    1  UNL1        0.0481
     14 C          60.5172   95.0287    2.2805 C.ar    1  UNL1        0.0176
     15 C          60.5544   96.0158    1.1517 C.ar    1  UNL1        0.0385
     16 C          59.9753   95.6510   -0.1831 C.ar    1  UNL1        0.1469
     17 C          59.3590   94.2990   -0.3889 C.ar    1  UNL1        0.0385
     18 C          59.3218   93.3119    0.7399 C.ar    1  UNL1        0.0176
     19 O          60.0125   96.6381   -1.3119 O.3     1  UNL1       -0.4045
     20 C          59.4269   96.2759   -2.6445 C.3     1  UNL1        0.5753
     21 F          58.8412   95.9137   -3.9771 F       1  UNL1       -0.1328
     22 F          58.0893   96.7847   -2.1950 F       1  UNL1       -0.1328
     23 F          60.7644   95.7670   -3.0940 F       1  UNL1       -0.1328
     24 C          59.6406   86.7670    9.9764 C.3     1  UNL1        0.1166
     25 C          61.9803   86.5544   11.0856 C.2     1  UNL1        0.2635
     26 O          62.5284   85.9700    9.8174 O.2     1  UNL1       -0.2685
     27 N          60.5365   86.9528   11.1651 N.am    1  UNL1       -0.2957
     28 H          60.1768   87.3363   11.9974 H       1  UNL1        0.1501
     29 C          63.3956   88.0491   12.7908 C.ar    1  UNL1        0.0811
     30 N          64.2503   87.7675   13.9908 N.ar    1  UNL1       -0.2306
     31 C          64.2593   86.2845   14.2159 C.ar    1  UNL1        0.1475
     32 C          64.9310   85.4303   15.2499 C.ar    1  UNL1        0.0383
     33 C          64.7535   83.9412   15.2229 C.ar    1  UNL1        0.0160
     34 C          63.9042   83.3062   14.1619 C.ar    1  UNL1        0.0753
     35 CL         63.7266   81.8169   14.1350 Cl      1  UNL1       -0.0807
     36 C          63.2324   84.1604   13.1280 C.ar    1  UNL1        0.0929
     37 N          63.4100   85.6496   13.1550 N.ar    1  UNL1       -0.2845
     38 C          62.8762   86.7402   12.2743 C.ar    1  UNL1        0.1326
     39 C          63.7481   90.6231   12.8029 C.3     1  UNL1        0.0067
     40 C          63.1102   89.4021   12.2095 C.3     1  UNL1        0.0475
@<TRIPOS>BOND
     1    39    40    1
     2    40    29    1
     3    29    30   ar
     4    30    31   ar
     5    31    32   ar
     6    32    33   ar
     7    33    34   ar
     8    34    35    1
     9    34    36   ar
    10    36    37   ar
    11    37    38   ar
    12    38    25    1
    13    25    26    2
    14    25    27   am
    15    27    24    1
    16    24     1    1
    17     1     2   ar
    18     2     3   ar
    19     3     4   ar
    20     4     7    1
    21     7     8    1
    22     8     9    1
    23     9    10    1
    24    10    13    1
    25    13    14   ar
    26    14    15   ar
    27    15    16   ar
    28    16    19    1
    29    19    20    1
    30    20    21    1
    31    20    22    1
    32    20    23    1
    33    16    17   ar
    34    17    18   ar
    35    10    11    1
    36    11    12    1
    37     4     5   ar
    38     5     6   ar
    39    38    29   ar
    40     6     1   ar
    41    37    31   ar
    42    12     7    1
    43    18    13   ar
    44    27    28    1
@<TRIPOS>MOLECULE
*****
 40 44 0 0 0
SMALL
GASTEIGER

@<TRIPOS>ATOM
      1 C          59.7244   88.2909    9.1121 C.ar    1  UNL1       -0.0025
      2 C          60.4169   89.6212    9.1372 C.ar    1  UNL1       -0.0014
      3 C          60.4287   90.4841    7.9103 C.ar    1  UNL1        0.0142
      4 C          59.7478   90.0166    6.6581 C.ar    1  UNL1        0.0479
      5 C          59.0553   88.6863    6.6329 C.ar    1  UNL1        0.0142
      6 C          59.0435   87.8235    7.8599 C.ar    1  UNL1       -0.0014
      7 N          59.7596   90.8795    5.4312 N.pl3   1  UNL1       -0.3041
      8 C          61.0547   91.1751    4.7346 C.3     1  UNL1        0.1122
      9 C          61.0665   92.0380    3.5077 C.3     1  UNL1        0.1122
     10 N          59.7831   92.6051    2.9774 N.pl3   1  UNL1       -0.3041
     11 C          58.4880   92.3095    3.6739 C.3     1  UNL1        0.1122
     12 C          58.4762   91.4466    4.9008 C.3     1  UNL1        0.1122
     13 C          59.7949   93.4680    1.7504 C.ar    1  UNL1        0.0481
     14 C          60.4723   94.8059    1.7808 C.ar    1  UNL1        0.0176
     15 C          60.4841   95.6687    0.5539 C.ar    1  UNL1        0.0385
     16 C          59.8184   95.1937   -0.7035 C.ar    1  UNL1        0.1469
     17 C          59.1409   93.8557   -0.7339 C.ar    1  UNL1        0.0385
     18 C          59.1292   92.9929    0.4930 C.ar    1  UNL1        0.0176
     19 O          59.8301   96.0565   -1.9304 O.3     1  UNL1       -0.4045
     20 C          59.7965   95.4260   -3.2910 C.3     1  UNL1        0.5753
     21 F          59.7628   94.7955   -4.6517 F       1  UNL1       -0.1328
     22 F          58.3461   95.7855   -3.4217 F       1  UNL1       -0.1328
     23 F          61.2468   95.0665   -3.1604 F       1  UNL1       -0.1328
     24 C          59.7126   87.4281   10.3390 C.3     1  UNL1        0.1166
     25 C          61.9821   86.2260   10.7319 C.2     1  UNL1        0.2635
     26 O          62.6254   87.5439   11.0475 O.2     1  UNL1       -0.2685
     27 N          60.5257   86.1682   10.3777 N.am    1  UNL1       -0.2957
     28 H          60.1035   85.3033   10.1706 H       1  UNL1        0.1501
     29 C          63.4739   84.3185    9.6002 C.ar    1  UNL1        0.0811
     30 N          64.1705   83.0848   10.0928 N.ar    1  UNL1       -0.2306
     31 C          63.9224   82.9699   11.5677 C.ar    1  UNL1        0.1475
     32 C          64.3606   81.9568   12.5833 C.ar    1  UNL1        0.0383
     33 C          63.9488   82.1065   14.0179 C.ar    1  UNL1        0.0160
     34 C          63.0988   83.2692   14.4368 C.ar    1  UNL1        0.0753
     35 CL         62.6870   83.4189   15.8714 Cl      1  UNL1       -0.0807
     36 C          62.6606   84.2823   13.4212 C.ar    1  UNL1        0.0929
     37 N          63.0724   84.1327   11.9866 N.ar    1  UNL1       -0.2845
     38 C          62.7952   84.9661   10.7706 C.ar    1  UNL1        0.1326
     39 C          62.1632   84.9019    7.4342 C.3     1  UNL1        0.0067
     40 C          63.4586   84.8170    8.1855 C.3     1  UNL1        0.0475
@<TRIPOS>BOND
     1    39    40    1
     2    40    29    1
     3    29    30   ar
     4    30    31   ar
     5    31    32   ar
     6    32    33   ar
     7    33    34   ar
     8    34    35    1
     9    34    36   ar
    10    36    37   ar
    11    37    38   ar
    12    38    25    1
    13    25    26    2
    14    25    27   am
    15    27    24    1
    16    24     1    1
    17     1     2   ar
    18     2     3   ar
    19     3     4   ar
    20     4     7    1
    21     7     8    1
    22     8     9    1
    23     9    10    1
    24    10    13    1
    25    13    14   ar
    26    14    15   ar
    27    15    16   ar
    28    16    19    1
    29    19    20    1
    30    20    21    1
    31    20    22    1
    32    20    23    1
    33    16    17   ar
    34    17    18   ar
    35    10    11    1
    36    11    12    1
    37     4     5   ar
    38     5     6   ar
    39    38    29   ar
    40     6     1   ar
    41    37    31   ar
    42    12     7    1
    43    18    13   ar
    44    27    28    1
@<TRIPOS>MOLECULE
*****
 40 44 0 0 0
SMALL
GASTEIGER

@<TRIPOS>ATOM
      1 C          59.1241   91.5087    4.7279 C.ar    1  UNL1       -0.0025
      2 C          60.5891   91.2516    4.9219 C.ar    1  UNL1       -0.0014
      3 C          61.0468   90.2600    5.9501 C.ar    1  UNL1        0.0142
      4 C          60.0396   89.5254    6.7843 C.ar    1  UNL1        0.0479
      5 C          58.5746   89.7825    6.5902 C.ar    1  UNL1        0.0142
      6 C          58.1169   90.7742    5.5621 C.ar    1  UNL1       -0.0014
      7 N          60.4973   88.5338    7.8124 N.pl3   1  UNL1       -0.3041
      8 C          61.2036   89.0067    9.0483 C.3     1  UNL1        0.1122
      9 C          61.6613   88.0151   10.0765 C.3     1  UNL1        0.1122
     10 N          61.4128   86.5505    9.8687 N.pl3   1  UNL1       -0.3041
     11 C          60.7065   86.0775    8.6328 C.3     1  UNL1        0.1122
     12 C          60.2488   87.0692    7.6047 C.3     1  UNL1        0.1122
     13 C          61.8705   85.5589   10.8969 C.ar    1  UNL1        0.0481
     14 C          61.8459   85.9217   12.3521 C.ar    1  UNL1        0.0176
     15 C          62.3036   84.9301   13.3802 C.ar    1  UNL1        0.0385
     16 C          62.7860   83.5755   12.9532 C.ar    1  UNL1        0.1469
     17 C          62.8107   83.2126   11.4980 C.ar    1  UNL1        0.0385
     18 C          62.3529   84.2043   10.4698 C.ar    1  UNL1        0.0176
     19 O          63.2438   82.5839   13.9814 O.3     1  UNL1       -0.4045
     20 C          62.8342   81.1452   13.8702 C.3     1  UNL1        0.5753
     21 F          62.4247   79.7064   13.7591 F       1  UNL1       -0.1328
     22 F          64.2202   80.7851   13.4238 F       1  UNL1       -0.1328
     23 F          61.4482   81.5052   14.3166 F       1  UNL1       -0.1328
     24 C          58.6664   92.5004    3.6997 C.3     1  UNL1        0.1166
     25 C          59.8782   93.2103    1.5140 C.2     1  UNL1        0.2635
     26 O          59.0859   92.1950    0.7450 O.2     1  UNL1       -0.2685
     27 N          59.6685   93.3630    2.9913 N.am    1  UNL1       -0.2957
     28 H          60.1885   94.0293    3.4961 H       1  UNL1        0.1501
     29 C          62.3315   94.2108    1.1594 C.ar    1  UNL1        0.0811
     30 N          62.9551   95.1722    0.1915 N.ar    1  UNL1       -0.2306
     31 C          61.8894   95.6284   -0.7605 C.ar    1  UNL1        0.1475
     32 C          61.9210   96.5746   -1.9239 C.ar    1  UNL1        0.0383
     33 C          60.6703   96.8415   -2.7077 C.ar    1  UNL1        0.0160
     34 C          59.3880   96.1621   -2.3281 C.ar    1  UNL1        0.0753
     35 CL         58.1372   96.4290   -3.1121 Cl      1  UNL1       -0.0807
     36 C          59.3564   95.2158   -1.1647 C.ar    1  UNL1        0.0929
     37 N          60.6071   94.9490   -0.3809 N.ar    1  UNL1       -0.2845
     38 C          60.8803   94.0729    0.8056 C.ar    1  UNL1        0.1326
     39 C          63.1267   92.0133    2.2944 C.3     1  UNL1        0.0067
     40 C          63.0353   93.5104    2.2837 C.3     1  UNL1        0.0475
@<TRIPOS>BOND
     1    39    40    1
     2    40    29    1
     3    29    30   ar
     4    30    31   ar
     5    31    32   ar
     6    32    33   ar
     7    33    34   ar
     8    34    35    1
     9    34    36   ar
    10    36    37   ar
    11    37    38   ar
    12    38    25    1
    13    25    26    2
    14    25    27   am
    15    27    24    1
    16    24     1    1
    17     1     2   ar
    18     2     3   ar
    19     3     4   ar
    20     4     7    1
    21     7     8    1
    22     8     9    1
    23     9    10    1
    24    10    13    1
    25    13    14   ar
    26    14    15   ar
    27    15    16   ar
    28    16    19    1
    29    19    20    1
    30    20    21    1
    31    20    22    1
    32    20    23    1
    33    16    17   ar
    34    17    18   ar
    35    10    11    1
    36    11    12    1
    37     4     5   ar
    38     5     6   ar
    39    38    29   ar
    40     6     1   ar
    41    37    31   ar
    42    12     7    1
    43    18    13   ar
    44    27    28    1
