@<TRIPOS>MOLECULE
*****
 35 37 0 0 0
SMALL
GASTEIGER

@<TRIPOS>ATOM
      1 C          63.4448   90.4906   12.8634 C.ar    1  UNL1       -0.0022
      2 C          63.8040   91.5866   11.9044 C.ar    1  UNL1        0.0012
      3 C          65.1160   92.3011   12.0393 C.ar    1  UNL1        0.0712
      4 C          66.0688   91.9195   13.1333 C.ar    1  UNL1        0.0038
      5 C          65.7095   90.8235   14.0923 C.ar    1  UNL1       -0.0002
      6 C          64.3975   90.1091   13.9573 C.ar    1  UNL1        0.0005
      7 C          64.0382   89.0131   14.9163 C.ar    1  UNL1        0.0334
      8 C          64.3506   87.5860   14.5756 C.ar    1  UNL1       -0.0009
      9 C          63.9913   86.4900   15.5346 C.ar    1  UNL1       -0.0164
     10 C          63.3196   86.8210   16.8343 C.ar    1  UNL1       -0.0008
     11 C          63.0073   88.2480   17.1750 C.ar    1  UNL1        0.0366
     12 C          63.3665   89.3440   16.2160 C.ar    1  UNL1        0.1386
     13 O          63.0541   90.7710   16.5567 O.3     1  UNL1       -0.4714
     14 C          64.1673   91.7340   16.8461 C.3     1  UNL1        0.2525
     15 C          64.3037   85.0630   15.1939 C.3     1  UNL1        0.0679
     16 C          63.1987   84.0519   15.1139 C.2     1  UNL1        0.0547
     17 O          61.7846   84.5020   14.8956 O.co2   1  UNL1       -0.5488
     18 O          63.5078   82.5906   15.2522 O.co2   1  UNL1       -0.5488
     19 C          65.4753   93.3971   11.0803 C.3     1  UNL1        0.4186
     20 F          65.8345   94.4931   10.1213 F       1  UNL1       -0.1659
     21 F          66.2583   94.0845   12.1593 F       1  UNL1       -0.1659
     22 F          64.6922   92.7096   10.0013 F       1  UNL1       -0.1659
     23 C          62.1328   89.7762   12.7285 C.3     1  UNL1        0.1238
     24 C          60.2102   89.5647   10.9938 C.2     1  UNL1        0.4055
     25 O          59.7227   89.1408    9.6401 O.2     1  UNL1       -0.2262
     26 N          61.6454   89.3522   11.3746 N.am    1  UNL1       -0.2378
     27 C          58.4654   89.3456   12.9063 C.3     1  UNL1        0.2573
     28 O          59.2624   90.2012   11.9668 O.3     1  UNL1       -0.4304
     29 C          62.5932   88.7158   10.4017 C.3     1  UNL1        0.1238
     30 C          62.6717   87.2213   10.2994 C.ar    1  UNL1       -0.0022
     31 C          62.8625   86.5701    8.9617 C.ar    1  UNL1       -0.0026
     32 C          62.9410   85.0757    8.8595 C.ar    1  UNL1       -0.0003
     33 C          62.8287   84.2325   10.0950 C.ar    1  UNL1       -0.0000
     34 C          62.6378   84.8837   11.4327 C.ar    1  UNL1       -0.0003
     35 C          62.5593   86.3781   11.5349 C.ar    1  UNL1       -0.0026
@<TRIPOS>UNITY_ATOM_ATTR
17 1
charge -1
@<TRIPOS>BOND
     1    27    28    1
     2    28    24    1
     3    24    25    2
     4    24    26   am
     5    26    29    1
     6    29    30    1
     7    30    31   ar
     8    31    32   ar
     9    32    33   ar
    10    33    34   ar
    11    34    35   ar
    12    26    23    1
    13    23     1    1
    14     1     2   ar
    15     2     3   ar
    16     3    19    1
    17    19    20    1
    18    19    21    1
    19    19    22    1
    20     3     4   ar
    21     4     5   ar
    22     5     6   ar
    23     6     7    1
    24     7     8   ar
    25     8     9   ar
    26     9    15    1
    27    15    16    1
    28    16    17   ar
    29    16    18   ar
    30     9    10   ar
    31    10    11   ar
    32    11    12   ar
    33    12    13    1
    34    13    14    1
    35    35    30   ar
    36     6     1   ar
    37    12     7   ar
@<TRIPOS>MOLECULE
*****
 35 37 0 0 0
SMALL
GASTEIGER

@<TRIPOS>ATOM
      1 C          63.5229   87.0431   12.9633 C.ar    1  UNL1       -0.0022
      2 C          63.4331   85.6480   12.4196 C.ar    1  UNL1        0.0012
      3 C          63.8481   84.4837   13.2693 C.ar    1  UNL1        0.0712
      4 C          64.3530   84.7144   14.6628 C.ar    1  UNL1        0.0038
      5 C          64.4428   86.1095   15.2066 C.ar    1  UNL1       -0.0002
      6 C          64.0278   87.2739   14.3568 C.ar    1  UNL1        0.0005
      7 C          64.1176   88.6689   14.9005 C.ar    1  UNL1        0.0334
      8 C          65.0503   89.6607   14.2708 C.ar    1  UNL1       -0.0009
      9 C          65.1402   91.0558   14.8146 C.ar    1  UNL1       -0.0164
     10 C          64.2973   91.4591   15.9881 C.ar    1  UNL1       -0.0008
     11 C          63.3646   90.4674   16.6177 C.ar    1  UNL1        0.0366
     12 C          63.2748   89.0723   16.0739 C.ar    1  UNL1        0.1386
     13 O          62.3421   88.0805   16.7036 O.3     1  UNL1       -0.4714
     14 C          62.7899   87.2776   17.8889 C.3     1  UNL1        0.2525
     15 C          66.0728   92.0476   14.1849 C.3     1  UNL1        0.0679
     16 C          67.5456   91.9705   14.4586 C.2     1  UNL1        0.0547
     17 O          68.0436   91.9087   15.8722 O.co2   1  UNL1       -0.5488
     18 O          68.5205   91.9553   13.3187 O.co2   1  UNL1       -0.5488
     19 C          63.7583   83.0886   12.7255 C.3     1  UNL1        0.4186
     20 F          63.6685   81.6935   12.1818 F       1  UNL1       -0.1659
     21 F          62.8990   82.6905   13.8888 F       1  UNL1       -0.1659
     22 F          64.6176   83.4867   11.5623 F       1  UNL1       -0.1659
     23 C          63.1079   88.2074   12.1136 C.3     1  UNL1        0.1238
     24 C          61.2097   89.3840   10.7860 C.2     1  UNL1        0.4055
     25 O          59.9563   89.3048    9.9657 O.2     1  UNL1       -0.2262
     26 N          61.8545   88.1282   11.2933 N.am    1  UNL1       -0.2378
     27 C          62.9685   91.2287   10.2824 C.3     1  UNL1        0.2573
     28 O          61.8182   90.7188   11.0990 O.3     1  UNL1       -0.4304
     29 C          61.2461   86.7934   10.9804 C.3     1  UNL1        0.1238
     30 C          61.3958   86.2038    9.6092 C.ar    1  UNL1       -0.0022
     31 C          62.6934   85.5707    9.2027 C.ar    1  UNL1       -0.0026
     32 C          62.8431   84.9811    7.8316 C.ar    1  UNL1       -0.0003
     33 C          61.6952   85.0246    6.8670 C.ar    1  UNL1       -0.0000
     34 C          60.3975   85.6577    7.2736 C.ar    1  UNL1       -0.0003
     35 C          60.2479   86.2473    8.6447 C.ar    1  UNL1       -0.0026
@<TRIPOS>UNITY_ATOM_ATTR
17 1
charge -1
@<TRIPOS>BOND
     1    27    28    1
     2    28    24    1
     3    24    25    2
     4    24    26   am
     5    26    29    1
     6    29    30    1
     7    30    31   ar
     8    31    32   ar
     9    32    33   ar
    10    33    34   ar
    11    34    35   ar
    12    26    23    1
    13    23     1    1
    14     1     2   ar
    15     2     3   ar
    16     3    19    1
    17    19    20    1
    18    19    21    1
    19    19    22    1
    20     3     4   ar
    21     4     5   ar
    22     5     6   ar
    23     6     7    1
    24     7     8   ar
    25     8     9   ar
    26     9    15    1
    27    15    16    1
    28    16    17   ar
    29    16    18   ar
    30     9    10   ar
    31    10    11   ar
    32    11    12   ar
    33    12    13    1
    34    13    14    1
    35    35    30   ar
    36     6     1   ar
    37    12     7   ar
@<TRIPOS>MOLECULE
*****
 35 37 0 0 0
SMALL
GASTEIGER

@<TRIPOS>ATOM
      1 C          61.7496   86.0039   10.4607 C.ar    1  UNL1       -0.0022
      2 C          61.4782   85.9200    8.9879 C.ar    1  UNL1        0.0012
      3 C          62.2449   84.9505    8.1380 C.ar    1  UNL1        0.0712
      4 C          63.2830   84.0650    8.7610 C.ar    1  UNL1        0.0038
      5 C          63.5544   84.1489   10.2339 C.ar    1  UNL1       -0.0002
      6 C          62.7877   85.1184   11.0837 C.ar    1  UNL1        0.0005
      7 C          63.0591   85.2024   12.5566 C.ar    1  UNL1        0.0334
      8 C          63.5123   86.4973   13.1631 C.ar    1  UNL1       -0.0009
      9 C          63.7837   86.5813   14.6359 C.ar    1  UNL1       -0.0164
     10 C          63.6019   85.3702   15.5023 C.ar    1  UNL1       -0.0008
     11 C          63.1487   84.0754   14.8958 C.ar    1  UNL1        0.0366
     12 C          62.8773   83.9914   13.4229 C.ar    1  UNL1        0.1386
     13 O          62.4242   82.6966   12.8164 O.3     1  UNL1       -0.4714
     14 C          62.0221   81.5539   13.7012 C.3     1  UNL1        0.2525
     15 C          64.2368   87.8761   15.2425 C.3     1  UNL1        0.0679
     16 C          63.3308   88.6258   16.1736 C.2     1  UNL1        0.0547
     17 O          63.1841   88.1796   17.5982 O.co2   1  UNL1       -0.5488
     18 O          62.5714   89.8216   15.6802 O.co2   1  UNL1       -0.5488
     19 C          61.9735   84.8666    6.6652 C.3     1  UNL1        0.4186
     20 F          61.7021   84.7827    5.1923 F       1  UNL1       -0.1659
     21 F          60.5285   85.1836    6.9133 F       1  UNL1       -0.1659
     22 F          63.4184   84.5496    6.4170 F       1  UNL1       -0.1659
     23 C          60.9829   86.9734   11.3106 C.3     1  UNL1        0.1238
     24 C          59.7413   89.2557   11.3121 C.2     1  UNL1        0.4055
     25 O          59.6889   90.7062   10.9339 O.2     1  UNL1       -0.2262
     26 N          60.9305   88.4240   10.9323 N.am    1  UNL1       -0.2378
     27 C          58.4662   88.8782   13.5441 C.3     1  UNL1        0.2573
     28 O          58.6045   88.6366   12.0701 O.3     1  UNL1       -0.4304
     29 C          62.0673   89.0430   10.1744 C.3     1  UNL1        0.1238
     30 C          62.9659   90.0366   10.8492 C.ar    1  UNL1       -0.0022
     31 C          63.5187   91.1956   10.0737 C.ar    1  UNL1       -0.0026
     32 C          64.4172   92.1891   10.7485 C.ar    1  UNL1       -0.0003
     33 C          64.7629   92.0238   12.1988 C.ar    1  UNL1       -0.0000
     34 C          64.2102   90.8649   12.9742 C.ar    1  UNL1       -0.0003
     35 C          63.3116   89.8713   12.2994 C.ar    1  UNL1       -0.0026
@<TRIPOS>UNITY_ATOM_ATTR
17 1
charge -1
@<TRIPOS>BOND
     1    27    28    1
     2    28    24    1
     3    24    25    2
     4    24    26   am
     5    26    29    1
     6    29    30    1
     7    30    31   ar
     8    31    32   ar
     9    32    33   ar
    10    33    34   ar
    11    34    35   ar
    12    26    23    1
    13    23     1    1
    14     1     2   ar
    15     2     3   ar
    16     3    19    1
    17    19    20    1
    18    19    21    1
    19    19    22    1
    20     3     4   ar
    21     4     5   ar
    22     5     6   ar
    23     6     7    1
    24     7     8   ar
    25     8     9   ar
    26     9    15    1
    27    15    16    1
    28    16    17   ar
    29    16    18   ar
    30     9    10   ar
    31    10    11   ar
    32    11    12   ar
    33    12    13    1
    34    13    14    1
    35    35    30   ar
    36     6     1   ar
    37    12     7   ar
@<TRIPOS>MOLECULE
*****
 35 37 0 0 0
SMALL
GASTEIGER

@<TRIPOS>ATOM
      1 C          62.5138   85.6635   12.2719 C.ar    1  UNL1       -0.0022
      2 C          62.4457   84.3683   11.5184 C.ar    1  UNL1        0.0012
      3 C          63.4798   83.3078   11.7549 C.ar    1  UNL1        0.0712
      4 C          64.5820   83.5425   12.7450 C.ar    1  UNL1        0.0038
      5 C          64.6500   84.8377   13.4985 C.ar    1  UNL1       -0.0002
      6 C          63.6159   85.8982   13.2620 C.ar    1  UNL1        0.0005
      7 C          63.6839   87.1934   14.0155 C.ar    1  UNL1        0.0334
      8 C          63.9764   88.4711   13.2860 C.ar    1  UNL1       -0.0009
      9 C          64.0444   89.7663   14.0396 C.ar    1  UNL1       -0.0164
     10 C          63.8200   89.7838   15.5226 C.ar    1  UNL1       -0.0008
     11 C          63.5275   88.5062   16.2520 C.ar    1  UNL1        0.0366
     12 C          63.4595   87.2110   15.4985 C.ar    1  UNL1        0.1386
     13 O          63.1670   85.9334   16.2279 O.3     1  UNL1       -0.4714
     14 C          62.3396   85.9565   17.4790 C.3     1  UNL1        0.2525
     15 C          64.3369   91.0439   13.3101 C.3     1  UNL1        0.0679
     16 C          65.5729   91.8283   13.6374 C.2     1  UNL1        0.0547
     17 O          66.6603   91.2052   14.4615 O.co2   1  UNL1       -0.5488
     18 O          65.7214   93.2358   13.1405 O.co2   1  UNL1       -0.5488
     19 C          63.4118   82.0126   11.0014 C.3     1  UNL1        0.4186
     20 F          63.3437   80.7174   10.2478 F       1  UNL1       -0.1659
     21 F          62.4097   81.4911   11.9882 F       1  UNL1       -0.1659
     22 F          64.4138   82.5342   10.0145 F       1  UNL1       -0.1659
     23 C          61.4797   86.7241   12.0354 C.3     1  UNL1        0.1238
     24 C          61.1822   89.1979   11.2995 C.2     1  UNL1        0.4055
     25 O          61.4521   90.3043   10.3233 O.2     1  UNL1       -0.2262
     26 N          61.7498   87.8305   11.0591 N.am    1  UNL1       -0.2378
     27 C          58.8584   89.2636   12.4597 C.3     1  UNL1        0.2573
     28 O          60.3445   89.4590   12.5162 O.3     1  UNL1       -0.4304
     29 C          62.5873   87.5693    9.8425 C.3     1  UNL1        0.1238
     30 C          62.1118   86.6037    8.7977 C.ar    1  UNL1       -0.0022
     31 C          60.6754   86.6131    8.3660 C.ar    1  UNL1       -0.0026
     32 C          60.1999   85.6475    7.3212 C.ar    1  UNL1       -0.0003
     33 C          61.1610   84.6726    6.7081 C.ar    1  UNL1       -0.0000
     34 C          62.5975   84.6633    7.1397 C.ar    1  UNL1       -0.0003
     35 C          63.0729   85.6288    8.1845 C.ar    1  UNL1       -0.0026
@<TRIPOS>UNITY_ATOM_ATTR
17 1
charge -1
@<TRIPOS>BOND
     1    27    28    1
     2    28    24    1
     3    24    25    2
     4    24    26   am
     5    26    29    1
     6    29    30    1
     7    30    31   ar
     8    31    32   ar
     9    32    33   ar
    10    33    34   ar
    11    34    35   ar
    12    26    23    1
    13    23     1    1
    14     1     2   ar
    15     2     3   ar
    16     3    19    1
    17    19    20    1
    18    19    21    1
    19    19    22    1
    20     3     4   ar
    21     4     5   ar
    22     5     6   ar
    23     6     7    1
    24     7     8   ar
    25     8     9   ar
    26     9    15    1
    27    15    16    1
    28    16    17   ar
    29    16    18   ar
    30     9    10   ar
    31    10    11   ar
    32    11    12   ar
    33    12    13    1
    34    13    14    1
    35    35    30   ar
    36     6     1   ar
    37    12     7   ar
@<TRIPOS>MOLECULE
*****
 35 37 0 0 0
SMALL
GASTEIGER

@<TRIPOS>ATOM
      1 C          63.3350   87.9875   12.9854 C.ar    1  UNL1       -0.0022
      2 C          64.1547   88.7508   13.9831 C.ar    1  UNL1        0.0012
      3 C          64.5100   90.1845   13.7219 C.ar    1  UNL1        0.0712
      4 C          64.0455   90.8550   12.4630 C.ar    1  UNL1        0.0038
      5 C          63.2257   90.0917   11.4653 C.ar    1  UNL1       -0.0002
      6 C          62.8705   88.6579   11.7265 C.ar    1  UNL1        0.0005
      7 C          62.0507   87.8946   10.7288 C.ar    1  UNL1        0.0334
      8 C          62.7161   86.9294    9.7930 C.ar    1  UNL1       -0.0009
      9 C          61.8963   86.1661    8.7953 C.ar    1  UNL1       -0.0164
     10 C          60.4112   86.3680    8.7334 C.ar    1  UNL1       -0.0008
     11 C          59.7459   87.3333    9.6692 C.ar    1  UNL1        0.0366
     12 C          60.5657   88.0966   10.6669 C.ar    1  UNL1        0.1386
     13 O          59.9004   89.0618   11.6027 O.3     1  UNL1       -0.4714
     14 C          59.6195   90.4662   11.1566 C.3     1  UNL1        0.2525
     15 C          62.5616   85.2008    7.8596 C.3     1  UNL1        0.0679
     16 C          61.8695   84.7835    6.5959 C.2     1  UNL1        0.0547
     17 O          60.3732   84.6857    6.5574 O.co2   1  UNL1       -0.5488
     18 O          62.6738   84.4639    5.3707 O.co2   1  UNL1       -0.5488
     19 C          65.3297   90.9478   14.7196 C.3     1  UNL1        0.4186
     20 F          66.1495   91.7111   15.7173 F       1  UNL1       -0.1659
     21 F          64.2882   90.6946   15.7690 F       1  UNL1       -0.1659
     22 F          66.3712   91.2009   13.6702 F       1  UNL1       -0.1659
     23 C          62.9797   86.5538   13.2465 C.3     1  UNL1        0.1238
     24 C          63.8564   85.8303   15.5828 C.2     1  UNL1        0.4055
     25 O          64.7568   84.9759   16.4249 O.2     1  UNL1       -0.2262
     26 N          63.8802   85.6994   14.0887 N.am    1  UNL1       -0.2378
     27 C          62.6921   86.7535   17.7141 C.3     1  UNL1        0.2573
     28 O          62.9321   86.8156   16.2347 O.3     1  UNL1       -0.4304
     29 C          64.8044   84.7141   13.4368 C.3     1  UNL1        0.1238
     30 C          64.2439   83.5786   12.6327 C.ar    1  UNL1       -0.0022
     31 C          63.4566   82.4965   13.3103 C.ar    1  UNL1       -0.0026
     32 C          62.8962   81.3611   12.5062 C.ar    1  UNL1       -0.0003
     33 C          63.1231   81.3077   11.0244 C.ar    1  UNL1       -0.0000
     34 C          63.9103   82.3898   10.3468 C.ar    1  UNL1       -0.0003
     35 C          64.4707   83.5252   11.1509 C.ar    1  UNL1       -0.0026
@<TRIPOS>UNITY_ATOM_ATTR
17 1
charge -1
@<TRIPOS>BOND
     1    27    28    1
     2    28    24    1
     3    24    25    2
     4    24    26   am
     5    26    29    1
     6    29    30    1
     7    30    31   ar
     8    31    32   ar
     9    32    33   ar
    10    33    34   ar
    11    34    35   ar
    12    26    23    1
    13    23     1    1
    14     1     2   ar
    15     2     3   ar
    16     3    19    1
    17    19    20    1
    18    19    21    1
    19    19    22    1
    20     3     4   ar
    21     4     5   ar
    22     5     6   ar
    23     6     7    1
    24     7     8   ar
    25     8     9   ar
    26     9    15    1
    27    15    16    1
    28    16    17   ar
    29    16    18   ar
    30     9    10   ar
    31    10    11   ar
    32    11    12   ar
    33    12    13    1
    34    13    14    1
    35    35    30   ar
    36     6     1   ar
    37    12     7   ar
@<TRIPOS>MOLECULE
*****
 35 37 0 0 0
SMALL
GASTEIGER

@<TRIPOS>ATOM
      1 C          62.1572   88.1610   11.9003 C.ar    1  UNL1       -0.0022
      2 C          61.3085   89.3919   12.0209 C.ar    1  UNL1        0.0012
      3 C          59.9523   89.4333   11.3814 C.ar    1  UNL1        0.0712
      4 C          59.4447   88.2437   10.6215 C.ar    1  UNL1        0.0038
      5 C          60.2935   87.0128   10.5009 C.ar    1  UNL1       -0.0002
      6 C          61.6498   86.9715   11.1404 C.ar    1  UNL1        0.0005
      7 C          62.4985   85.7406   11.0199 C.ar    1  UNL1        0.0334
      8 C          62.9446   85.0134   12.2537 C.ar    1  UNL1       -0.0009
      9 C          63.7934   83.7825   12.1332 C.ar    1  UNL1       -0.0164
     10 C          64.1961   83.2788   10.7789 C.ar    1  UNL1       -0.0008
     11 C          63.7500   84.0060    9.5451 C.ar    1  UNL1        0.0366
     12 C          62.9012   85.2369    9.6656 C.ar    1  UNL1        0.1386
     13 O          62.4551   85.9641    8.4319 O.3     1  UNL1       -0.4714
     14 C          61.8560   85.2017    7.2873 C.3     1  UNL1        0.2525
     15 C          64.2395   83.0553   13.3670 C.3     1  UNL1        0.0679
     16 C          63.2937   82.1325   14.0768 C.2     1  UNL1        0.0547
     17 O          63.6101   80.6700   14.1818 O.co2   1  UNL1       -0.5488
     18 O          62.0315   82.6721   14.6816 O.co2   1  UNL1       -0.5488
     19 C          59.1035   90.6641   11.5020 C.3     1  UNL1        0.4186
     20 F          58.2547   91.8950   11.6225 F       1  UNL1       -0.1659
     21 F          58.1830   89.9378   12.4374 F       1  UNL1       -0.1659
     22 F          60.0240   91.3905   10.5665 F       1  UNL1       -0.1659
     23 C          63.5135   88.1196   12.5398 C.3     1  UNL1        0.1238
     24 C          64.1055   90.6485   12.6036 C.2     1  UNL1        0.4055
     25 O          64.6197   91.8439   13.3496 O.2     1  UNL1       -0.2262
     26 N          64.0277   89.3150   13.2859 N.am    1  UNL1       -0.2378
     27 C          64.0788   91.9900   10.3787 C.3     1  UNL1        0.2573
     28 O          63.6691   90.7867   11.1751 O.3     1  UNL1       -0.4304
     29 C          64.4641   89.1768   14.7143 C.3     1  UNL1        0.1238
     30 C          63.9374   88.0508   15.5539 C.ar    1  UNL1       -0.0022
     31 C          64.2607   86.6313   15.1930 C.ar    1  UNL1       -0.0026
     32 C          63.7340   85.5054   16.0326 C.ar    1  UNL1       -0.0003
     33 C          62.8839   85.7991   17.2331 C.ar    1  UNL1       -0.0000
     34 C          62.5606   87.2186   17.5940 C.ar    1  UNL1       -0.0003
     35 C          63.0873   88.3445   16.7544 C.ar    1  UNL1       -0.0026
@<TRIPOS>UNITY_ATOM_ATTR
17 1
charge -1
@<TRIPOS>BOND
     1    27    28    1
     2    28    24    1
     3    24    25    2
     4    24    26   am
     5    26    29    1
     6    29    30    1
     7    30    31   ar
     8    31    32   ar
     9    32    33   ar
    10    33    34   ar
    11    34    35   ar
    12    26    23    1
    13    23     1    1
    14     1     2   ar
    15     2     3   ar
    16     3    19    1
    17    19    20    1
    18    19    21    1
    19    19    22    1
    20     3     4   ar
    21     4     5   ar
    22     5     6   ar
    23     6     7    1
    24     7     8   ar
    25     8     9   ar
    26     9    15    1
    27    15    16    1
    28    16    17   ar
    29    16    18   ar
    30     9    10   ar
    31    10    11   ar
    32    11    12   ar
    33    12    13    1
    34    13    14    1
    35    35    30   ar
    36     6     1   ar
    37    12     7   ar
@<TRIPOS>MOLECULE
*****
 35 37 0 0 0
SMALL
GASTEIGER

@<TRIPOS>ATOM
      1 C          62.6599   87.7037   11.6060 C.ar    1  UNL1       -0.0022
      2 C          61.9959   88.5837   10.5888 C.ar    1  UNL1        0.0012
      3 C          61.0407   87.9925    9.5949 C.ar    1  UNL1        0.0712
      4 C          60.7494   86.5212    9.6181 C.ar    1  UNL1        0.0038
      5 C          61.4135   85.6411   10.6352 C.ar    1  UNL1       -0.0002
      6 C          62.3688   86.2324   11.6292 C.ar    1  UNL1        0.0005
      7 C          63.0328   85.3524   12.6463 C.ar    1  UNL1        0.0334
      8 C          63.0361   85.7487   14.0931 C.ar    1  UNL1       -0.0009
      9 C          63.7001   84.8687   15.1102 C.ar    1  UNL1       -0.0164
     10 C          64.3609   83.5923   14.6806 C.ar    1  UNL1       -0.0008
     11 C          64.3576   83.1961   13.2339 C.ar    1  UNL1        0.0366
     12 C          63.6936   84.0762   12.2168 C.ar    1  UNL1        0.1386
     13 O          63.6903   83.6800   10.7701 O.3     1  UNL1       -0.4714
     14 C          63.9944   82.2639   10.3795 C.3     1  UNL1        0.2525
     15 C          63.7035   85.2649   16.5569 C.3     1  UNL1        0.0679
     16 C          62.4491   85.7834   17.1953 C.2     1  UNL1        0.0547
     17 O          61.1344   85.6457   16.4863 O.co2   1  UNL1       -0.5488
     18 O          62.5093   86.4397   18.5428 O.co2   1  UNL1       -0.5488
     19 C          60.3766   88.8725    8.5778 C.3     1  UNL1        0.4186
     20 F          59.7126   89.7526    7.5606 F       1  UNL1       -0.1659
     21 F          59.9836   87.6607    7.7858 F       1  UNL1       -0.1659
     22 F          60.7696   90.0843    9.3697 F       1  UNL1       -0.1659
     23 C          63.6151   88.2949   12.5999 C.3     1  UNL1        0.1238
     24 C          63.3498   90.0233   14.5215 C.2     1  UNL1        0.4055
     25 O          63.1746   91.4412   14.9784 O.2     1  UNL1       -0.2262
     26 N          63.4399   89.7129   13.0568 N.am    1  UNL1       -0.2378
     27 C          63.1584   89.1957   16.9769 C.3     1  UNL1        0.2573
     28 O          63.4350   88.9156   15.5295 O.3     1  UNL1       -0.4304
     29 C          63.3547   90.8205   12.0488 C.3     1  UNL1        0.1238
     30 C          64.5344   91.7183   11.8196 C.ar    1  UNL1       -0.0022
     31 C          64.6957   92.4239   10.5058 C.ar    1  UNL1       -0.0026
     32 C          65.8753   93.3217   10.2766 C.ar    1  UNL1       -0.0003
     33 C          66.8935   93.5139   11.3612 C.ar    1  UNL1       -0.0000
     34 C          66.7322   92.8083   12.6750 C.ar    1  UNL1       -0.0003
     35 C          65.5526   91.9105   12.9041 C.ar    1  UNL1       -0.0026
@<TRIPOS>UNITY_ATOM_ATTR
17 1
charge -1
@<TRIPOS>BOND
     1    27    28    1
     2    28    24    1
     3    24    25    2
     4    24    26   am
     5    26    29    1
     6    29    30    1
     7    30    31   ar
     8    31    32   ar
     9    32    33   ar
    10    33    34   ar
    11    34    35   ar
    12    26    23    1
    13    23     1    1
    14     1     2   ar
    15     2     3   ar
    16     3    19    1
    17    19    20    1
    18    19    21    1
    19    19    22    1
    20     3     4   ar
    21     4     5   ar
    22     5     6   ar
    23     6     7    1
    24     7     8   ar
    25     8     9   ar
    26     9    15    1
    27    15    16    1
    28    16    17   ar
    29    16    18   ar
    30     9    10   ar
    31    10    11   ar
    32    11    12   ar
    33    12    13    1
    34    13    14    1
    35    35    30   ar
    36     6     1   ar
    37    12     7   ar
@<TRIPOS>MOLECULE
*****
 35 37 0 0 0
SMALL
GASTEIGER

@<TRIPOS>ATOM
      1 C          63.5257   87.9905   13.9846 C.ar    1  UNL1       -0.0022
      2 C          63.3643   87.1687   15.2290 C.ar    1  UNL1        0.0012
      3 C          63.1656   87.8443   16.5534 C.ar    1  UNL1        0.0712
      4 C          63.1283   89.3418   16.6335 C.ar    1  UNL1        0.0038
      5 C          63.2897   90.1636   15.3890 C.ar    1  UNL1       -0.0002
      6 C          63.4884   89.4879   14.0646 C.ar    1  UNL1        0.0005
      7 C          63.6498   90.3097   12.8202 C.ar    1  UNL1        0.0334
      8 C          64.8836   91.1402   12.6246 C.ar    1  UNL1       -0.0009
      9 C          65.0450   91.9620   11.3802 C.ar    1  UNL1       -0.0164
     10 C          63.9726   91.9533   10.3313 C.ar    1  UNL1       -0.0008
     11 C          62.7389   91.1228   10.5269 C.ar    1  UNL1        0.0366
     12 C          62.5775   90.3010   11.7713 C.ar    1  UNL1        0.1386
     13 O          61.3439   89.4705   11.9669 O.3     1  UNL1       -0.4714
     14 C          60.0535   89.8805   11.3210 C.3     1  UNL1        0.2525
     15 C          66.2786   92.7925   11.1846 C.3     1  UNL1        0.0679
     16 C          66.4012   94.1247   11.8630 C.2     1  UNL1        0.0547
     17 O          66.8439   95.3263   11.0818 O.co2   1  UNL1       -0.5488
     18 O          66.0812   94.2553   13.3227 O.co2   1  UNL1       -0.5488
     19 C          63.0042   87.0225   17.7979 C.3     1  UNL1        0.4186
     20 F          62.8428   86.2007   19.0423 F       1  UNL1       -0.1659
     21 F          62.8782   85.7828   16.9628 F       1  UNL1       -0.1659
     22 F          63.1302   88.2622   18.6329 F       1  UNL1       -0.1659
     23 C          63.7244   87.3150   12.6602 C.3     1  UNL1        0.1238
     24 C          63.2790   84.7570   12.7539 C.2     1  UNL1        0.4055
     25 O          62.4397   83.5702   12.3840 O.2     1  UNL1       -0.2262
     26 N          62.8850   86.1281   12.2902 N.am    1  UNL1       -0.2378
     27 C          64.4709   83.6980   14.8052 C.3     1  UNL1        0.2573
     28 O          64.5124   84.5729   13.5875 O.3     1  UNL1       -0.4304
     29 C          61.6517   86.3123   11.4566 C.3     1  UNL1        0.1238
     30 C          61.6757   85.9711    9.9961 C.ar    1  UNL1       -0.0022
     31 C          62.8750   85.2921    9.4042 C.ar    1  UNL1       -0.0026
     32 C          62.8990   84.9509    7.9437 C.ar    1  UNL1       -0.0003
     33 C          61.7236   85.2887    7.0752 C.ar    1  UNL1       -0.0000
     34 C          60.5242   85.9676    7.6672 C.ar    1  UNL1       -0.0003
     35 C          60.5002   86.3088    9.1276 C.ar    1  UNL1       -0.0026
@<TRIPOS>UNITY_ATOM_ATTR
17 1
charge -1
@<TRIPOS>BOND
     1    27    28    1
     2    28    24    1
     3    24    25    2
     4    24    26   am
     5    26    29    1
     6    29    30    1
     7    30    31   ar
     8    31    32   ar
     9    32    33   ar
    10    33    34   ar
    11    34    35   ar
    12    26    23    1
    13    23     1    1
    14     1     2   ar
    15     2     3   ar
    16     3    19    1
    17    19    20    1
    18    19    21    1
    19    19    22    1
    20     3     4   ar
    21     4     5   ar
    22     5     6   ar
    23     6     7    1
    24     7     8   ar
    25     8     9   ar
    26     9    15    1
    27    15    16    1
    28    16    17   ar
    29    16    18   ar
    30     9    10   ar
    31    10    11   ar
    32    11    12   ar
    33    12    13    1
    34    13    14    1
    35    35    30   ar
    36     6     1   ar
    37    12     7   ar
@<TRIPOS>MOLECULE
*****
 35 37 0 0 0
SMALL
GASTEIGER

@<TRIPOS>ATOM
      1 C          63.1367   87.4418   12.8090 C.ar    1  UNL1       -0.0022
      2 C          63.3969   88.9116   12.6606 C.ar    1  UNL1        0.0012
      3 C          64.2777   89.6206   13.6462 C.ar    1  UNL1        0.0712
      4 C          64.8984   88.8598   14.7803 C.ar    1  UNL1        0.0038
      5 C          64.6382   87.3900   14.9286 C.ar    1  UNL1       -0.0002
      6 C          63.7573   86.6810   13.9429 C.ar    1  UNL1        0.0005
      7 C          63.4972   85.2112   14.0913 C.ar    1  UNL1        0.0334
      8 C          64.0892   84.2421   13.1113 C.ar    1  UNL1       -0.0009
      9 C          63.8290   82.7723   13.2597 C.ar    1  UNL1       -0.0164
     10 C          62.9768   82.2716   14.3881 C.ar    1  UNL1       -0.0008
     11 C          62.3848   83.2408   15.3680 C.ar    1  UNL1        0.0366
     12 C          62.6450   84.7106   15.2196 C.ar    1  UNL1        0.1386
     13 O          62.0531   85.6797   16.1996 O.3     1  UNL1       -0.4714
     14 C          62.7855   86.0060   17.4673 C.3     1  UNL1        0.2525
     15 C          64.4209   81.8032   12.2797 C.3     1  UNL1        0.0679
     16 C          64.0140   81.8529   10.8368 C.2     1  UNL1        0.0547
     17 O          64.5731   82.9140    9.9360 O.co2   1  UNL1       -0.5488
     18 O          63.0480   80.8414   10.2947 O.co2   1  UNL1       -0.5488
     19 C          64.5379   91.0904   13.4978 C.3     1  UNL1        0.4186
     20 F          64.7981   92.5602   13.3495 F       1  UNL1       -0.1659
     21 F          65.6457   90.9959   14.5047 F       1  UNL1       -0.1659
     22 F          63.4301   91.1849   12.4909 F       1  UNL1       -0.1659
     23 C          62.2559   86.7328   11.8234 C.3     1  UNL1        0.1238
     24 C          60.3980   88.2634   10.8458 C.2     1  UNL1        0.4055
     25 O          59.8097   89.0156    9.6891 O.2     1  UNL1       -0.2262
     26 N          61.6676   87.4851   10.6666 N.am    1  UNL1       -0.2378
     27 C          58.9997   89.5272   12.6341 C.3     1  UNL1        0.2573
     28 O          59.7166   88.2896   12.1819 O.3     1  UNL1       -0.4304
     29 C          62.3490   87.4589    9.3305 C.3     1  UNL1        0.1238
     30 C          62.0159   86.3830    8.3397 C.ar    1  UNL1       -0.0022
     31 C          63.0876   85.4525    7.8543 C.ar    1  UNL1       -0.0026
     32 C          62.7545   84.3767    6.8636 C.ar    1  UNL1       -0.0003
     33 C          61.3497   84.2315    6.3581 C.ar    1  UNL1       -0.0000
     34 C          60.2780   85.1620    6.8435 C.ar    1  UNL1       -0.0003
     35 C          60.6111   86.2377    7.8342 C.ar    1  UNL1       -0.0026
@<TRIPOS>UNITY_ATOM_ATTR
17 1
charge -1
@<TRIPOS>BOND
     1    27    28    1
     2    28    24    1
     3    24    25    2
     4    24    26   am
     5    26    29    1
     6    29    30    1
     7    30    31   ar
     8    31    32   ar
     9    32    33   ar
    10    33    34   ar
    11    34    35   ar
    12    26    23    1
    13    23     1    1
    14     1     2   ar
    15     2     3   ar
    16     3    19    1
    17    19    20    1
    18    19    21    1
    19    19    22    1
    20     3     4   ar
    21     4     5   ar
    22     5     6   ar
    23     6     7    1
    24     7     8   ar
    25     8     9   ar
    26     9    15    1
    27    15    16    1
    28    16    17   ar
    29    16    18   ar
    30     9    10   ar
    31    10    11   ar
    32    11    12   ar
    33    12    13    1
    34    13    14    1
    35    35    30   ar
    36     6     1   ar
    37    12     7   ar
