@<TRIPOS>MOLECULE
*****
 28 32 0 0 0
SMALL
GASTEIGER

@<TRIPOS>ATOM
      1 C          61.9505   89.4877   11.2193 C.3     1  UNL1        0.2065
      2 C          62.9618   90.2346   12.0377 C.ar    1  UNL1        0.2182
      3 N          63.9678   91.2165   11.5145 N.ar    1  UNL1       -0.2116
      4 C          64.7722   91.7194   12.6765 C.ar    1  UNL1        0.1190
      5 C          65.9023   92.7018   12.7646 C.ar    1  UNL1        0.0267
      6 C          66.5236   93.0130   14.0940 C.ar    1  UNL1        0.0022
      7 C          66.0147   92.3419   15.3351 C.ar    1  UNL1        0.0032
      8 C          64.8846   91.3595   15.2470 C.ar    1  UNL1        0.0391
      9 C          64.2633   91.0483   13.9177 C.ar    1  UNL1        0.1644
     10 O          63.1444   90.1306   13.5229 O.2     1  UNL1       -0.4378
     11 C          66.4112   93.3729   11.5234 C.ar    1  UNL1        0.0310
     12 C          67.1716   92.7118   10.4122 C.ar    1  UNL1        0.0071
     13 C          67.4794   93.7532    9.3774 C.ar    1  UNL1        0.0075
     14 C          66.9092   95.0580    9.8491 C.ar    1  UNL1        0.0354
     15 S          66.2490   94.8229   11.1754 S.2     1  UNL1       -0.0864
     16 O          62.0388   85.5423    7.8391 O.2     1  UNL1       -0.2422
     17 C          62.1936   86.0567    9.2396 C.2     1  UNL1        0.3644
     18 C          62.5472   85.1129   10.3505 C.3     1  UNL1        0.2333
     19 C          62.7019   85.6274   11.7510 C.2     1  UNL1        0.3159
     20 N          62.5031   87.0856   12.0406 N.2     1  UNL1       -0.0039
     21 C          62.1494   88.0295   10.9297 C.2     1  UNL1        0.3581
     22 N          61.9947   87.5150    9.5292 N.am    1  UNL1        0.0289
     23 N          63.0556   84.6835   12.8619 N.pl3   1  UNL1       -0.1888
     24 C          63.7163   85.2019   14.1048 C.3     1  UNL1        0.2343
     25 C          64.0699   84.2581   15.2157 C.3     1  UNL1        0.1929
     26 O          63.7628   82.7958   15.0838 O.3     1  UNL1       -0.3449
     27 C          63.1021   82.2773   13.8409 C.3     1  UNL1        0.1929
     28 C          62.7485   83.2212   12.7300 C.3     1  UNL1        0.2343
@<TRIPOS>BOND
     1    16    17    2
     2    17    18    1
     3    18    19    1
     4    19    23    1
     5    23    24    1
     6    24    25    1
     7    25    26    1
     8    26    27    1
     9    27    28    1
    10    19    20    2
    11    20    21    1
    12    21     1    1
    13     1     2    1
    14     2     3   ar
    15     3     4   ar
    16     4     5   ar
    17     5    11    1
    18    11    12   ar
    19    12    13   ar
    20    13    14   ar
    21    14    15   ar
    22     5     6   ar
    23     6     7   ar
    24     7     8   ar
    25     8     9   ar
    26     9    10   ar
    27    21    22    2
    28    22    17    1
    29    28    23    1
    30    10     2   ar
    31     9     4   ar
    32    15    11   ar
@<TRIPOS>MOLECULE
*****
 28 32 0 0 0
SMALL
GASTEIGER

@<TRIPOS>ATOM
      1 C          61.3980   90.3174   10.4196 C.3     1  UNL1        0.2065
      2 C          62.5729   90.6674   11.2841 C.ar    1  UNL1        0.2182
      3 N          63.7532   91.4972   10.8739 N.ar    1  UNL1       -0.2116
      4 C          64.6834   91.5916   12.0469 C.ar    1  UNL1        0.1190
      5 C          66.0036   92.2804   12.2280 C.ar    1  UNL1        0.0267
      6 C          66.7183   92.1978   13.5441 C.ar    1  UNL1        0.0022
      7 C          66.1129   91.4264   14.6792 C.ar    1  UNL1        0.0032
      8 C          64.7928   90.7376   14.4980 C.ar    1  UNL1        0.0391
      9 C          64.0781   90.8202   13.1819 C.ar    1  UNL1        0.1644
     10 O          62.7737   90.2490   12.7105 O.2     1  UNL1       -0.4378
     11 C          66.6090   93.0519   11.0929 C.ar    1  UNL1        0.0310
     12 C          67.5844   92.5189   10.0857 C.ar    1  UNL1        0.0071
     13 C          67.9235   93.6293    9.1360 C.ar    1  UNL1        0.0075
     14 C          67.1576   94.8487    9.5563 C.ar    1  UNL1        0.0354
     15 S          66.3452   94.4918   10.7657 S.2     1  UNL1       -0.0864
     16 O          58.9149   86.8574    7.4427 O.2     1  UNL1       -0.2422
     17 C          59.9544   87.1721    8.4773 C.2     1  UNL1        0.3644
     18 C          60.7919   86.0714    9.0580 C.3     1  UNL1        0.2333
     19 C          61.8314   86.3862   10.0927 C.2     1  UNL1        0.3159
     20 N          62.0334   87.8015   10.5465 N.2     1  UNL1       -0.0039
     21 C          61.1960   88.9021    9.9658 C.2     1  UNL1        0.3581
     22 N          60.1565   88.5874    8.9312 N.am    1  UNL1        0.0289
     23 N          62.6688   85.2855   10.6734 N.pl3   1  UNL1       -0.1888
     24 C          62.8055   85.1524   12.1612 C.3     1  UNL1        0.2343
     25 C          63.6430   84.0518   12.7419 C.3     1  UNL1        0.1929
     26 O          64.3437   83.0842   11.8349 O.3     1  UNL1       -0.3449
     27 C          64.2071   83.2173   10.3470 C.3     1  UNL1        0.1929
     28 C          63.3696   84.3179    9.7663 C.3     1  UNL1        0.2343
@<TRIPOS>BOND
     1    16    17    2
     2    17    18    1
     3    18    19    1
     4    19    23    1
     5    23    24    1
     6    24    25    1
     7    25    26    1
     8    26    27    1
     9    27    28    1
    10    19    20    2
    11    20    21    1
    12    21     1    1
    13     1     2    1
    14     2     3   ar
    15     3     4   ar
    16     4     5   ar
    17     5    11    1
    18    11    12   ar
    19    12    13   ar
    20    13    14   ar
    21    14    15   ar
    22     5     6   ar
    23     6     7   ar
    24     7     8   ar
    25     8     9   ar
    26     9    10   ar
    27    21    22    2
    28    22    17    1
    29    28    23    1
    30    10     2   ar
    31     9     4   ar
    32    15    11   ar
@<TRIPOS>MOLECULE
*****
 28 32 0 0 0
SMALL
GASTEIGER

@<TRIPOS>ATOM
      1 C          63.8703   89.9695   14.1858 C.3     1  UNL1        0.2065
      2 C          63.1265   89.5249   12.9614 C.ar    1  UNL1        0.2182
      3 N          63.1627   88.1523   12.3575 N.ar    1  UNL1       -0.2116
      4 C          62.2744   88.1541   11.1488 C.ar    1  UNL1        0.1190
      5 C          61.9228   87.0823   10.1600 C.ar    1  UNL1        0.0267
      6 C          60.9860   87.3841    9.0282 C.ar    1  UNL1        0.0022
      7 C          60.4007   88.7578    8.8850 C.ar    1  UNL1        0.0032
      8 C          60.7523   89.8296    9.8738 C.ar    1  UNL1        0.0391
      9 C          61.6891   89.5277   11.0057 C.ar    1  UNL1        0.1644
     10 O          62.2157   90.3750   12.1259 O.2     1  UNL1       -0.4378
     11 C          62.5082   85.7086   10.3032 C.ar    1  UNL1        0.0310
     12 C          63.1991   84.9279    9.2247 C.ar    1  UNL1        0.0071
     13 C          63.6233   83.6113    9.8049 C.ar    1  UNL1        0.0075
     14 C          63.1945   83.5783   11.2420 C.ar    1  UNL1        0.0354
     15 S          62.5053   84.8745   11.5499 S.2     1  UNL1       -0.0864
     16 O          67.1054   93.3136   16.4988 O.2     1  UNL1       -0.2422
     17 C          66.4780   92.7647   15.2519 C.2     1  UNL1        0.3644
     18 C          66.8407   93.3389   13.9144 C.3     1  UNL1        0.2333
     19 C          66.2132   92.7899   12.6674 C.2     1  UNL1        0.3159
     20 N          65.2231   91.6668   12.7579 N.2     1  UNL1       -0.0039
     21 C          64.8604   91.0926   14.0953 C.2     1  UNL1        0.3581
     22 N          65.4879   91.6415   15.3423 N.am    1  UNL1        0.0289
     23 N          66.5759   93.3641   11.3300 N.pl3   1  UNL1       -0.1888
     24 C          67.4735   92.5986   10.4035 C.3     1  UNL1        0.2343
     25 C          67.8362   93.1728    9.0661 C.3     1  UNL1        0.1929
     26 O          67.3013   94.5125    8.6551 O.3     1  UNL1       -0.3449
     27 C          66.4036   95.2781    9.5815 C.3     1  UNL1        0.1929
     28 C          66.0410   94.7039   10.9189 C.3     1  UNL1        0.2343
@<TRIPOS>BOND
     1    16    17    2
     2    17    18    1
     3    18    19    1
     4    19    23    1
     5    23    24    1
     6    24    25    1
     7    25    26    1
     8    26    27    1
     9    27    28    1
    10    19    20    2
    11    20    21    1
    12    21     1    1
    13     1     2    1
    14     2     3   ar
    15     3     4   ar
    16     4     5   ar
    17     5    11    1
    18    11    12   ar
    19    12    13   ar
    20    13    14   ar
    21    14    15   ar
    22     5     6   ar
    23     6     7   ar
    24     7     8   ar
    25     8     9   ar
    26     9    10   ar
    27    21    22    2
    28    22    17    1
    29    28    23    1
    30    10     2   ar
    31     9     4   ar
    32    15    11   ar
@<TRIPOS>MOLECULE
*****
 28 32 0 0 0
SMALL
GASTEIGER

@<TRIPOS>ATOM
      1 C          62.7510   91.1912   11.1445 C.3     1  UNL1        0.2065
      2 C          62.0670   90.0725   10.4159 C.ar    1  UNL1        0.2182
      3 N          62.4119   88.6160   10.5133 N.ar    1  UNL1       -0.2116
      4 C          61.4760   87.8573    9.6196 C.ar    1  UNL1        0.1190
      5 C          61.3453   86.3947    9.3134 C.ar    1  UNL1        0.0267
      6 C          60.2914   85.9197    8.3577 C.ar    1  UNL1        0.0022
      7 C          59.3681   86.9074    7.7080 C.ar    1  UNL1        0.0032
      8 C          59.4988   88.3700    8.0142 C.ar    1  UNL1        0.0391
      9 C          60.5527   88.8449    8.9699 C.ar    1  UNL1        0.1644
     10 O          60.9179   90.2140    9.4621 O.2     1  UNL1       -0.4378
     11 C          62.2687   85.4070    9.9631 C.ar    1  UNL1        0.0310
     12 C          63.2706   84.5411    9.2585 C.ar    1  UNL1        0.0071
     13 C          63.9734   83.7108   10.2913 C.ar    1  UNL1        0.0075
     14 C          63.4058   84.0636   11.6342 C.ar    1  UNL1        0.0354
     15 S          62.3522   85.1118   11.4314 S.2     1  UNL1       -0.0864
     16 O          66.8688   92.3355   14.0998 O.2     1  UNL1       -0.2422
     17 C          65.6835   91.4649   13.8044 C.2     1  UNL1        0.3644
     18 C          65.3719   90.2960   14.6912 C.3     1  UNL1        0.2333
     19 C          64.1866   89.4254   14.3957 C.2     1  UNL1        0.3159
     20 N          63.3130   89.7238   13.2135 N.2     1  UNL1       -0.0039
     21 C          63.6246   90.8928   12.3267 C.2     1  UNL1        0.3581
     22 N          64.8098   91.7633   12.6221 N.am    1  UNL1        0.0289
     23 N          63.8750   88.2564   15.2825 N.pl3   1  UNL1       -0.1888
     24 C          64.2846   86.8732   14.8717 C.3     1  UNL1        0.2343
     25 C          63.9730   85.7042   15.7585 C.3     1  UNL1        0.1929
     26 O          63.2518   85.9185   17.0561 O.3     1  UNL1       -0.3449
     27 C          62.8422   87.3018   17.4670 C.3     1  UNL1        0.1929
     28 C          63.1538   88.4708   16.5802 C.3     1  UNL1        0.2343
@<TRIPOS>BOND
     1    16    17    2
     2    17    18    1
     3    18    19    1
     4    19    23    1
     5    23    24    1
     6    24    25    1
     7    25    26    1
     8    26    27    1
     9    27    28    1
    10    19    20    2
    11    20    21    1
    12    21     1    1
    13     1     2    1
    14     2     3   ar
    15     3     4   ar
    16     4     5   ar
    17     5    11    1
    18    11    12   ar
    19    12    13   ar
    20    13    14   ar
    21    14    15   ar
    22     5     6   ar
    23     6     7   ar
    24     7     8   ar
    25     8     9   ar
    26     9    10   ar
    27    21    22    2
    28    22    17    1
    29    28    23    1
    30    10     2   ar
    31     9     4   ar
    32    15    11   ar
@<TRIPOS>MOLECULE
*****
 28 32 0 0 0
SMALL
GASTEIGER

@<TRIPOS>ATOM
      1 C          62.9746   91.2017   10.8403 C.3     1  UNL1        0.2065
      2 C          62.2074   90.0904   10.1871 C.ar    1  UNL1        0.2182
      3 N          62.5052   88.6251   10.3054 N.ar    1  UNL1       -0.2116
      4 C          61.4895   87.8785    9.4923 C.ar    1  UNL1        0.1190
      5 C          61.2879   86.4142    9.2371 C.ar    1  UNL1        0.0267
      6 C          60.1608   85.9538    8.3610 C.ar    1  UNL1        0.0022
      7 C          59.2353   86.9577    7.7401 C.ar    1  UNL1        0.0032
      8 C          59.4369   88.4220    7.9954 C.ar    1  UNL1        0.0391
      9 C          60.5640   88.8824    8.8715 C.ar    1  UNL1        0.1644
     10 O          61.0077   90.2495    9.3008 O.2     1  UNL1       -0.4378
     11 C          62.2135   85.4102    9.8580 C.ar    1  UNL1        0.0310
     12 C          63.2274   84.5778    9.1306 C.ar    1  UNL1        0.0071
     13 C          63.9282   83.7156   10.1383 C.ar    1  UNL1        0.0075
     14 C          63.3473   84.0151   11.4885 C.ar    1  UNL1        0.0354
     15 S          62.2876   85.0624   11.3152 S.2     1  UNL1       -0.0864
     16 O          62.4281   89.3430   15.6617 O.2     1  UNL1       -0.2422
     17 C          63.2285   90.1015   14.6448 C.2     1  UNL1        0.3644
     18 C          64.5561   90.6891   15.0219 C.3     1  UNL1        0.2333
     19 C          65.3566   91.4476   14.0049 C.2     1  UNL1        0.3159
     20 N          64.8294   91.6185   12.6111 N.2     1  UNL1       -0.0039
     21 C          63.5018   91.0308   12.2341 C.2     1  UNL1        0.3581
     22 N          62.7013   90.2723   13.2509 N.am    1  UNL1        0.0289
     23 N          66.6842   92.0353   14.3820 N.pl3   1  UNL1       -0.1888
     24 C          67.8980   91.7400   13.5517 C.3     1  UNL1        0.2343
     25 C          69.2256   92.3277   13.9287 C.3     1  UNL1        0.1929
     26 O          69.3394   93.2106   15.1360 O.3     1  UNL1       -0.3449
     27 C          68.1255   93.5058   15.9663 C.3     1  UNL1        0.1929
     28 C          66.7979   92.9182   15.5893 C.3     1  UNL1        0.2343
@<TRIPOS>BOND
     1    16    17    2
     2    17    18    1
     3    18    19    1
     4    19    23    1
     5    23    24    1
     6    24    25    1
     7    25    26    1
     8    26    27    1
     9    27    28    1
    10    19    20    2
    11    20    21    1
    12    21     1    1
    13     1     2    1
    14     2     3   ar
    15     3     4   ar
    16     4     5   ar
    17     5    11    1
    18    11    12   ar
    19    12    13   ar
    20    13    14   ar
    21    14    15   ar
    22     5     6   ar
    23     6     7   ar
    24     7     8   ar
    25     8     9   ar
    26     9    10   ar
    27    21    22    2
    28    22    17    1
    29    28    23    1
    30    10     2   ar
    31     9     4   ar
    32    15    11   ar
@<TRIPOS>MOLECULE
*****
 28 32 0 0 0
SMALL
GASTEIGER

@<TRIPOS>ATOM
      1 C          61.2742   90.0452   10.1521 C.3     1  UNL1        0.2065
      2 C          62.3432   90.3967   11.1440 C.ar    1  UNL1        0.2182
      3 N          62.5966   89.7037   12.4499 N.ar    1  UNL1       -0.2116
      4 C          63.7565   90.3817   13.1171 C.ar    1  UNL1        0.1190
      5 C          64.4505   90.1301   14.4229 C.ar    1  UNL1        0.0267
      6 C          65.6079   90.9906   14.8351 C.ar    1  UNL1        0.0022
      7 C          66.0713   92.1027   13.9415 C.ar    1  UNL1        0.0032
      8 C          65.3772   92.3543   12.6357 C.ar    1  UNL1        0.0391
      9 C          64.2198   91.4938   12.2235 C.ar    1  UNL1        0.1644
     10 O          63.3464   91.5031   11.0041 O.2     1  UNL1       -0.4378
     11 C          63.9871   89.0180   15.3164 C.ar    1  UNL1        0.0310
     12 C          63.2246   89.1765   16.5984 C.ar    1  UNL1        0.0071
     13 C          62.9711   87.8086   17.1592 C.ar    1  UNL1        0.0075
     14 C          63.5769   86.8046   16.2238 C.ar    1  UNL1        0.0354
     15 S          64.2048   87.5520   15.0849 S.2     1  UNL1       -0.0864
     16 O          58.9294   86.5283    7.1301 O.2     1  UNL1       -0.2422
     17 C          59.9318   86.8651    8.1939 C.2     1  UNL1        0.3644
     18 C          60.7642   85.7802    8.8106 C.3     1  UNL1        0.2333
     19 C          61.7666   86.1171    9.8745 C.2     1  UNL1        0.3159
     20 N          61.9366   87.5387   10.3216 N.2     1  UNL1       -0.0039
     21 C          61.1042   88.6236    9.7050 C.2     1  UNL1        0.3581
     22 N          60.1018   88.2868    8.6411 N.am    1  UNL1        0.0289
     23 N          62.5989   85.0322   10.4911 N.pl3   1  UNL1       -0.1888
     24 C          63.4458   84.1508    9.6218 C.3     1  UNL1        0.2343
     25 C          64.2782   83.0660   10.2385 C.3     1  UNL1        0.1929
     26 O          64.2637   82.8626   11.7245 O.3     1  UNL1       -0.3449
     27 C          63.4167   83.7440   12.5939 C.3     1  UNL1        0.1929
     28 C          62.5844   84.8288   11.9773 C.3     1  UNL1        0.2343
@<TRIPOS>BOND
     1    16    17    2
     2    17    18    1
     3    18    19    1
     4    19    23    1
     5    23    24    1
     6    24    25    1
     7    25    26    1
     8    26    27    1
     9    27    28    1
    10    19    20    2
    11    20    21    1
    12    21     1    1
    13     1     2    1
    14     2     3   ar
    15     3     4   ar
    16     4     5   ar
    17     5    11    1
    18    11    12   ar
    19    12    13   ar
    20    13    14   ar
    21    14    15   ar
    22     5     6   ar
    23     6     7   ar
    24     7     8   ar
    25     8     9   ar
    26     9    10   ar
    27    21    22    2
    28    22    17    1
    29    28    23    1
    30    10     2   ar
    31     9     4   ar
    32    15    11   ar
@<TRIPOS>MOLECULE
*****
 28 32 0 0 0
SMALL
GASTEIGER

@<TRIPOS>ATOM
      1 C          63.4662   90.4149   13.5395 C.3     1  UNL1        0.2065
      2 C          63.4686   88.9269   13.3499 C.ar    1  UNL1        0.2182
      3 N          62.9690   88.1913   12.1419 N.ar    1  UNL1       -0.2116
      4 C          63.1626   86.7230   12.3804 C.ar    1  UNL1        0.1190
      5 C          62.8550   85.5203   11.5385 C.ar    1  UNL1        0.0267
      6 C          63.1666   84.1458   12.0520 C.ar    1  UNL1        0.0022
      7 C          63.7858   83.9741   13.4073 C.ar    1  UNL1        0.0032
      8 C          64.0934   85.1768   14.2492 C.ar    1  UNL1        0.0391
      9 C          63.7818   86.5513   13.7358 C.ar    1  UNL1        0.1644
     10 O          63.9709   87.9133   14.3349 O.2     1  UNL1       -0.4378
     11 C          62.2358   85.6921   10.1831 C.ar    1  UNL1        0.0310
     12 C          62.8275   85.2426    8.8800 C.ar    1  UNL1        0.0071
     13 C          61.8736   85.6162    7.7844 C.ar    1  UNL1        0.0075
     14 C          60.6923   86.2966    8.4103 C.ar    1  UNL1        0.0354
     15 S          60.9162   86.3435    9.8927 S.2     1  UNL1       -0.0864
     16 O          68.0562   91.6534   15.6367 O.2     1  UNL1       -0.2422
     17 C          67.0503   91.7992   14.5336 C.2     1  UNL1        0.3644
     18 C          67.3335   92.7101   13.3759 C.3     1  UNL1        0.2333
     19 C          66.3275   92.8559   12.2728 C.2     1  UNL1        0.3159
     20 N          65.0384   92.0908   12.3273 N.2     1  UNL1       -0.0039
     21 C          64.7553   91.1800   13.4850 C.2     1  UNL1        0.3581
     22 N          65.7612   91.0341   14.5881 N.am    1  UNL1        0.0289
     23 N          66.6107   93.7667   11.1151 N.pl3   1  UNL1       -0.1888
     24 C          67.4143   93.2708    9.9497 C.3     1  UNL1        0.2343
     25 C          67.6975   94.1817    8.7921 C.3     1  UNL1        0.1929
     26 O          67.1770   95.5885    8.7998 O.3     1  UNL1       -0.3449
     27 C          66.3733   96.0844    9.9653 C.3     1  UNL1        0.1929
     28 C          66.0901   95.1736   11.1229 C.3     1  UNL1        0.2343
@<TRIPOS>BOND
     1    16    17    2
     2    17    18    1
     3    18    19    1
     4    19    23    1
     5    23    24    1
     6    24    25    1
     7    25    26    1
     8    26    27    1
     9    27    28    1
    10    19    20    2
    11    20    21    1
    12    21     1    1
    13     1     2    1
    14     2     3   ar
    15     3     4   ar
    16     4     5   ar
    17     5    11    1
    18    11    12   ar
    19    12    13   ar
    20    13    14   ar
    21    14    15   ar
    22     5     6   ar
    23     6     7   ar
    24     7     8   ar
    25     8     9   ar
    26     9    10   ar
    27    21    22    2
    28    22    17    1
    29    28    23    1
    30    10     2   ar
    31     9     4   ar
    32    15    11   ar
@<TRIPOS>MOLECULE
*****
 28 32 0 0 0
SMALL
GASTEIGER

@<TRIPOS>ATOM
      1 C          63.6543   90.3028   13.9794 C.3     1  UNL1        0.2065
      2 C          63.1966   89.3487   12.9163 C.ar    1  UNL1        0.2182
      3 N          63.3014   87.8533   12.9691 N.ar    1  UNL1       -0.2116
      4 C          62.7232   87.3030   11.6991 C.ar    1  UNL1        0.1190
      5 C          62.5578   85.8991   11.1972 C.ar    1  UNL1        0.0267
      6 C          61.9303   85.6505    9.8577 C.ar    1  UNL1        0.0022
      7 C          61.4682   86.8058    9.0200 C.ar    1  UNL1        0.0032
      8 C          61.6336   88.2096    9.5218 C.ar    1  UNL1        0.0391
      9 C          62.2610   88.4582   10.8614 C.ar    1  UNL1        0.1644
     10 O          62.5536   89.7225   11.6136 O.2     1  UNL1       -0.4378
     11 C          63.0200   84.7438   12.0350 C.ar    1  UNL1        0.0310
     12 C          62.6668   84.5001   13.4724 C.ar    1  UNL1        0.0071
     13 C          63.3450   83.2351   13.9082 C.ar    1  UNL1        0.0075
     14 C          64.1172   82.6971   12.7402 C.ar    1  UNL1        0.0354
     15 S          63.9164   83.6295   11.5826 S.2     1  UNL1       -0.0864
     16 O          68.2652   91.8253   15.8292 O.2     1  UNL1       -0.2422
     17 C          67.2435   91.8204   14.7310 C.2     1  UNL1        0.3644
     18 C          67.5054   92.5720   13.4595 C.3     1  UNL1        0.2333
     19 C          66.4835   92.5671   12.3614 C.2     1  UNL1        0.3159
     20 N          65.1999   91.8107   12.5347 N.2     1  UNL1       -0.0039
     21 C          64.9380   91.0592   13.8061 C.2     1  UNL1        0.3581
     22 N          65.9597   91.0640   14.9043 N.am    1  UNL1        0.0289
     23 N          66.7455   93.3186   11.0899 N.pl3   1  UNL1       -0.1888
     24 C          66.1366   94.6733   10.8804 C.3     1  UNL1        0.2343
     25 C          66.3985   95.4249    9.6090 C.3     1  UNL1        0.1929
     26 O          67.2693   94.8216    8.5470 O.3     1  UNL1       -0.3449
     27 C          67.8782   93.4668    8.7564 C.3     1  UNL1        0.1929
     28 C          67.6163   92.7153   10.0279 C.3     1  UNL1        0.2343
@<TRIPOS>BOND
     1    16    17    2
     2    17    18    1
     3    18    19    1
     4    19    23    1
     5    23    24    1
     6    24    25    1
     7    25    26    1
     8    26    27    1
     9    27    28    1
    10    19    20    2
    11    20    21    1
    12    21     1    1
    13     1     2    1
    14     2     3   ar
    15     3     4   ar
    16     4     5   ar
    17     5    11    1
    18    11    12   ar
    19    12    13   ar
    20    13    14   ar
    21    14    15   ar
    22     5     6   ar
    23     6     7   ar
    24     7     8   ar
    25     8     9   ar
    26     9    10   ar
    27    21    22    2
    28    22    17    1
    29    28    23    1
    30    10     2   ar
    31     9     4   ar
    32    15    11   ar
@<TRIPOS>MOLECULE
*****
 28 32 0 0 0
SMALL
GASTEIGER

@<TRIPOS>ATOM
      1 C          63.8947   87.5384   15.4069 C.3     1  UNL1        0.2065
      2 C          63.7248   86.2378   14.6792 C.ar    1  UNL1        0.2182
      3 N          63.4094   86.0778   13.2215 N.ar    1  UNL1       -0.2116
      4 C          63.3302   84.6099   12.9228 C.ar    1  UNL1        0.1190
      5 C          63.0498   83.8571   11.6560 C.ar    1  UNL1        0.0267
      6 C          63.0359   82.3572   11.6623 C.ar    1  UNL1        0.0022
      7 C          63.3023   81.6101   12.9354 C.ar    1  UNL1        0.0032
      8 C          63.5827   82.3629   14.2021 C.ar    1  UNL1        0.0391
      9 C          63.5966   83.8628   14.1959 C.ar    1  UNL1        0.1644
     10 O          63.8405   84.8688   15.2814 O.2     1  UNL1       -0.4378
     11 C          62.7834   84.6043   10.3829 C.ar    1  UNL1        0.0310
     12 C          63.4603   84.3701    9.0649 C.ar    1  UNL1        0.0071
     13 C          62.8886   85.3379    8.0717 C.ar    1  UNL1        0.0075
     14 C          61.8583   86.1703    8.7758 C.ar    1  UNL1        0.0354
     15 S          61.7933   85.7169   10.2042 S.2     1  UNL1       -0.0864
     16 O          62.4642   90.8838   11.6973 O.2     1  UNL1       -0.2422
     17 C          63.4169   90.4761   12.7818 C.2     1  UNL1        0.3644
     18 C          64.6069   91.3335   13.0961 C.3     1  UNL1        0.2333
     19 C          65.5596   90.9257   14.1807 C.2     1  UNL1        0.3159
     20 N          65.3222   89.6607   14.9510 N.2     1  UNL1       -0.0039
     21 C          64.1321   88.8034   14.6367 C.2     1  UNL1        0.3581
     22 N          63.1795   89.2110   13.5521 N.am    1  UNL1        0.0289
     23 N          66.7496   91.7831   14.4950 N.pl3   1  UNL1       -0.1888
     24 C          67.9951   91.6701   13.6668 C.3     1  UNL1        0.2343
     25 C          69.1851   92.5274   13.9811 C.3     1  UNL1        0.1929
     26 O          69.1297   93.4978   15.1235 O.3     1  UNL1       -0.3449
     27 C          67.8841   93.6109   15.9518 C.3     1  UNL1        0.1929
     28 C          66.6941   92.7535   15.6375 C.3     1  UNL1        0.2343
@<TRIPOS>BOND
     1    16    17    2
     2    17    18    1
     3    18    19    1
     4    19    23    1
     5    23    24    1
     6    24    25    1
     7    25    26    1
     8    26    27    1
     9    27    28    1
    10    19    20    2
    11    20    21    1
    12    21     1    1
    13     1     2    1
    14     2     3   ar
    15     3     4   ar
    16     4     5   ar
    17     5    11    1
    18    11    12   ar
    19    12    13   ar
    20    13    14   ar
    21    14    15   ar
    22     5     6   ar
    23     6     7   ar
    24     7     8   ar
    25     8     9   ar
    26     9    10   ar
    27    21    22    2
    28    22    17    1
    29    28    23    1
    30    10     2   ar
    31     9     4   ar
    32    15    11   ar
