@<TRIPOS>MOLECULE
*****
 44 45 0 0 0
SMALL
GASTEIGER

@<TRIPOS>ATOM
      1 O          64.3541   87.7516   14.5030 O.3     1  UNL1        0.0000
      2 P          63.5503   89.0075   14.6662 P.3     1  UNL1        0.0000
      3 O          63.5375   88.8060   16.1526 O.2     1  UNL1        0.0000
      4 O          62.7466   90.2634   14.8294 O.3     1  UNL1        0.0000
      5 H          62.5655   90.4113   15.7708 H       1  UNL1        0.0000
      6 C          63.5632   89.2089   13.1799 C.3     1  UNL1        0.0000
      7 O          62.8431   90.3775   12.5751 O.3     1  UNL1        0.0000
      8 C          62.8422   90.1084    9.9909 C.3     1  UNL1        0.0000
      9 C          63.2350   90.8787   11.2167 C.3     1  UNL1        0.0000
     10 C          64.0197   92.1502   11.0840 C.3     1  UNL1        0.0000
     11 N          65.4267   92.2204   11.5993 N.ar    1  UNL1        0.0000
     12 C          66.6707   92.2700   10.7625 C.ar    1  UNL1        0.0000
     13 N          67.8495   92.3336   11.6879 N.ar    1  UNL1        0.0000
     14 C          67.3341   92.3234   13.0966 C.ar    1  UNL1        0.0000
     15 C          68.0348   92.3688   14.4220 C.ar    1  UNL1        0.0000
     16 N          69.5322   92.4387   14.4768 N.pl3   1  UNL1        0.0000
     17 N          67.2381   92.3442   15.6927 N.ar    1  UNL1        0.0000
     18 C          65.7408   92.2743   15.6379 C.ar    1  UNL1        0.0000
     19 N          65.0400   92.2289   14.3125 N.ar    1  UNL1        0.0000
     20 C          65.8367   92.2535   13.0418 C.ar    1  UNL1        0.0000
     21 H          70.0550   92.4548   13.6428 H       1  UNL1        0.0000
     22 H          69.9920   92.4685   15.3468 H       1  UNL1        0.0000
     23 C          64.2379   86.6499   15.5143 C.3     1  UNL1        0.0000
     24 C          64.3485   85.2184   15.0801 C.3     1  UNL1        0.0000
     25 C          63.1187   84.3640   14.9931 C.3     1  UNL1        0.0000
     26 O          63.2178   82.9566   14.4839 O.3     1  UNL1        0.0000
     27 C          61.9772   82.1303   14.3166 C.3     1  UNL1        0.0000
     28 C          61.9451   81.0212   13.3073 C.3     1  UNL1        0.0000
     29 C          63.0947   80.8338   12.3620 C.3     1  UNL1        0.0000
     30 C          63.0953   81.5317   11.0342 C.3     1  UNL1        0.0000
     31 C          64.0321   82.6773   10.7894 C.3     1  UNL1        0.0000
     32 C          63.4920   84.0095   10.3610 C.3     1  UNL1        0.0000
     33 C          62.5301   84.7478   11.2439 C.3     1  UNL1        0.0000
     34 C          61.6223   85.7886   10.6586 C.3     1  UNL1        0.0000
     35 C          61.8519   86.2842    9.2616 C.3     1  UNL1        0.0000
     36 C          60.9964   85.7808    8.1370 C.3     1  UNL1        0.0000
     37 C          59.7420   86.5132    7.7631 C.3     1  UNL1        0.0000
     38 C          59.5635   87.9478    8.1632 C.3     1  UNL1        0.0000
     39 C          59.4556   89.0119    7.1116 C.1     1  UNL1        0.0000
     40 C          59.3477   90.0761    6.0599 C.1     1  UNL1        0.0000
     41 SI         59.2399   91.1402    5.0082 Si      1  UNL1        0.0000
     42 C          60.7290   91.1141    4.8292 C.3     1  UNL1        0.0000
     43 C          57.7509   91.1662    5.1873 C.3     1  UNL1        0.0000
     44 C          59.1322   92.2043    3.9566 C.3     1  UNL1        0.0000
@<TRIPOS>BOND
     1     9     8    1
     2     9    10    1
     3    10    11    1
     4    11    12   ar
     5    12    13   ar
     6    13    14   ar
     7    14    15   ar
     8    15    16    1
     9    15    17   ar
    10    17    18   ar
    11    18    19   ar
    12    19    20   ar
    13     9     7    1
    14     7     6    1
    15     6     2    1
    16     2     3    2
    17     2     4    1
    18     2     1    1
    19     1    23    1
    20    23    24    1
    21    24    25    1
    22    25    26    1
    23    26    27    1
    24    27    28    1
    25    28    29    1
    26    29    30    1
    27    30    31    1
    28    31    32    1
    29    32    33    1
    30    33    34    1
    31    34    35    1
    32    35    36    1
    33    36    37    1
    34    37    38    1
    35    38    39    1
    36    39    40    3
    37    40    41    1
    38    41    42    1
    39    41    43    1
    40    41    44    1
    41    20    11   ar
    42    20    14   ar
    43    16    21    1
    44    16    22    1
    45     4     5    1
@<TRIPOS>MOLECULE
*****
 44 45 0 0 0
SMALL
GASTEIGER

@<TRIPOS>ATOM
      1 O          63.7416   88.3401   15.6708 O.3     1  UNL1        0.0000
      2 P          63.4426   89.8076   15.5881 P.3     1  UNL1        0.0000
      3 O          62.0292   89.5437   16.0154 O.2     1  UNL1        0.0000
      4 O          63.1435   91.2752   15.5054 O.3     1  UNL1        0.0000
      5 H          62.2173   91.4306   15.7481 H       1  UNL1        0.0000
      6 C          64.8560   90.0716   15.1608 C.3     1  UNL1        0.0000
      7 O          65.3848   91.4751   15.1441 O.3     1  UNL1        0.0000
      8 C          67.7805   92.0617   15.9606 C.3     1  UNL1        0.0000
      9 C          66.8332   91.7275   14.8466 C.3     1  UNL1        0.0000
     10 C          67.3343   91.6455   13.4351 C.3     1  UNL1        0.0000
     11 N          66.9399   92.6937   12.4372 N.ar    1  UNL1        0.0000
     12 C          65.9692   93.8130   12.6713 C.ar    1  UNL1        0.0000
     13 N          65.8764   94.6176   11.4087 N.ar    1  UNL1        0.0000
     14 C          66.7897   93.9955   10.3944 C.ar    1  UNL1        0.0000
     15 C          67.1077   94.3582    8.9741 C.ar    1  UNL1        0.0000
     16 N          66.4504   95.5472    8.3384 N.pl3   1  UNL1        0.0000
     17 N          68.0831   93.5317    8.1894 N.ar    1  UNL1        0.0000
     18 C          68.7404   92.3427    8.8251 C.ar    1  UNL1        0.0000
     19 N          68.4223   91.9800   10.2453 N.ar    1  UNL1        0.0000
     20 C          67.4470   92.8064   11.0300 C.ar    1  UNL1        0.0000
     21 H          65.8103   96.0897    8.8534 H       1  UNL1        0.0000
     22 H          66.6592   95.7853    7.4062 H       1  UNL1        0.0000
     23 C          64.5174   87.6699   14.5758 C.3     1  UNL1        0.0000
     24 C          64.4677   86.1782   14.4263 C.3     1  UNL1        0.0000
     25 C          63.6784   85.3528   15.3987 C.3     1  UNL1        0.0000
     26 O          63.5819   83.8671   15.2161 O.3     1  UNL1        0.0000
     27 C          62.4160   83.2759   14.4807 C.3     1  UNL1        0.0000
     28 C          62.3026   81.7882   14.3265 C.3     1  UNL1        0.0000
     29 C          62.9566   81.1026   13.1636 C.3     1  UNL1        0.0000
     30 C          62.7985   81.6586   11.7795 C.3     1  UNL1        0.0000
     31 C          63.9391   82.3817   11.1268 C.3     1  UNL1        0.0000
     32 C          63.7005   83.6933   10.4392 C.3     1  UNL1        0.0000
     33 C          62.8384   84.7348   11.0889 C.3     1  UNL1        0.0000
     34 C          62.3624   85.9157   10.2959 C.3     1  UNL1        0.0000
     35 C          60.9840   85.9156    9.7045 C.3     1  UNL1        0.0000
     36 C          60.7829   86.3078    8.2707 C.3     1  UNL1        0.0000
     37 C          59.6220   87.1766    7.8866 C.3     1  UNL1        0.0000
     38 C          59.6790   88.6555    8.1307 C.3     1  UNL1        0.0000
     39 C          60.6994   89.2213    9.0732 C.1     1  UNL1        0.0000
     40 C          61.7199   89.7873   10.0159 C.1     1  UNL1        0.0000
     41 SI         62.7404   90.3532   10.9584 Si      1  UNL1        0.0000
     42 C          62.4053   89.2884   11.9605 C.3     1  UNL1        0.0000
     43 C          63.0754   91.4179    9.9564 C.3     1  UNL1        0.0000
     44 C          63.7607   90.9191   11.9010 C.3     1  UNL1        0.0000
@<TRIPOS>BOND
     1     9     8    1
     2     9    10    1
     3    10    11    1
     4    11    12   ar
     5    12    13   ar
     6    13    14   ar
     7    14    15   ar
     8    15    16    1
     9    15    17   ar
    10    17    18   ar
    11    18    19   ar
    12    19    20   ar
    13     9     7    1
    14     7     6    1
    15     6     2    1
    16     2     3    2
    17     2     4    1
    18     2     1    1
    19     1    23    1
    20    23    24    1
    21    24    25    1
    22    25    26    1
    23    26    27    1
    24    27    28    1
    25    28    29    1
    26    29    30    1
    27    30    31    1
    28    31    32    1
    29    32    33    1
    30    33    34    1
    31    34    35    1
    32    35    36    1
    33    36    37    1
    34    37    38    1
    35    38    39    1
    36    39    40    3
    37    40    41    1
    38    41    42    1
    39    41    43    1
    40    41    44    1
    41    20    11   ar
    42    20    14   ar
    43    16    21    1
    44    16    22    1
    45     4     5    1
@<TRIPOS>MOLECULE
*****
 44 45 0 0 0
SMALL
GASTEIGER

@<TRIPOS>ATOM
      1 O          63.7549   88.5604   14.4449 O.3     1  UNL1        0.0000
      2 P          63.6200   89.7373   15.3650 P.3     1  UNL1        0.0000
      3 O          62.6198   88.9799   16.1871 O.2     1  UNL1        0.0000
      4 O          63.4851   90.9143   16.2851 O.3     1  UNL1        0.0000
      5 H          62.8462   90.7062   16.9846 H       1  UNL1        0.0000
      6 C          64.6202   90.4947   14.5428 C.3     1  UNL1        0.0000
      7 O          65.1020   91.8397   14.9996 O.3     1  UNL1        0.0000
      8 C          67.3045   92.6526   16.1124 C.3     1  UNL1        0.0000
      9 C          66.5570   92.1898   14.8971 C.3     1  UNL1        0.0000
     10 C          67.2645   92.0770   13.5792 C.3     1  UNL1        0.0000
     11 N          66.9283   93.0222   12.4641 N.ar    1  UNL1        0.0000
     12 C          66.0002   94.1973   12.5540 C.ar    1  UNL1        0.0000
     13 N          65.9595   94.8596   11.2088 N.ar    1  UNL1        0.0000
     14 C          66.8623   94.0940   10.2875 C.ar    1  UNL1        0.0000
     15 C          67.2164   94.2842    8.8424 C.ar    1  UNL1        0.0000
     16 N          66.6177   95.4198    8.0666 N.pl3   1  UNL1        0.0000
     17 N          68.1694   93.3387    8.1731 N.ar    1  UNL1        0.0000
     18 C          68.7682   92.2031    8.9490 C.ar    1  UNL1        0.0000
     19 N          68.4140   92.0130   10.3941 N.ar    1  UNL1        0.0000
     20 C          67.4610   92.9584   11.0633 C.ar    1  UNL1        0.0000
     21 H          65.9922   96.0403    8.5059 H       1  UNL1        0.0000
     22 H          66.8502   95.5446    7.1181 H       1  UNL1        0.0000
     23 C          64.5026   87.3398   14.8931 C.3     1  UNL1        0.0000
     24 C          63.9550   85.9746   14.5991 C.3     1  UNL1        0.0000
     25 C          64.3054   84.8185   15.4882 C.3     1  UNL1        0.0000
     26 O          63.8046   83.4427   15.1620 O.3     1  UNL1        0.0000
     27 C          62.4450   83.2641   14.5540 C.3     1  UNL1        0.0000
     28 C          61.9128   81.8851   14.2988 C.3     1  UNL1        0.0000
     29 C          62.0404   81.2724   12.9355 C.3     1  UNL1        0.0000
     30 C          63.3452   81.3458   12.1993 C.3     1  UNL1        0.0000
     31 C          63.4777   82.2288   10.9940 C.3     1  UNL1        0.0000
     32 C          63.6382   83.7105   11.1637 C.3     1  UNL1        0.0000
     33 C          62.6562   84.6490   10.5274 C.3     1  UNL1        0.0000
     34 C          61.9015   85.6314   11.3731 C.3     1  UNL1        0.0000
     35 C          61.3271   86.8700   10.7520 C.3     1  UNL1        0.0000
     36 C          61.5255   87.1369    9.2893 C.3     1  UNL1        0.0000
     37 C          60.5007   86.6738    8.2966 C.3     1  UNL1        0.0000
     38 C          59.2449   87.4675    8.0895 C.3     1  UNL1        0.0000
     39 C          59.2407   88.6314    7.1434 C.1     1  UNL1        0.0000
     40 C          59.2366   89.7955    6.1972 C.1     1  UNL1        0.0000
     41 SI         59.2325   90.9594    5.2511 Si      1  UNL1        0.0000
     42 C          57.7379   91.0369    5.3529 C.3     1  UNL1        0.0000
     43 C          60.7270   90.8820    5.1494 C.3     1  UNL1        0.0000
     44 C          59.2283   92.1234    4.3051 C.3     1  UNL1        0.0000
@<TRIPOS>BOND
     1     9     8    1
     2     9    10    1
     3    10    11    1
     4    11    12   ar
     5    12    13   ar
     6    13    14   ar
     7    14    15   ar
     8    15    16    1
     9    15    17   ar
    10    17    18   ar
    11    18    19   ar
    12    19    20   ar
    13     9     7    1
    14     7     6    1
    15     6     2    1
    16     2     3    2
    17     2     4    1
    18     2     1    1
    19     1    23    1
    20    23    24    1
    21    24    25    1
    22    25    26    1
    23    26    27    1
    24    27    28    1
    25    28    29    1
    26    29    30    1
    27    30    31    1
    28    31    32    1
    29    32    33    1
    30    33    34    1
    31    34    35    1
    32    35    36    1
    33    36    37    1
    34    37    38    1
    35    38    39    1
    36    39    40    3
    37    40    41    1
    38    41    42    1
    39    41    43    1
    40    41    44    1
    41    20    11   ar
    42    20    14   ar
    43    16    21    1
    44    16    22    1
    45     4     5    1
@<TRIPOS>MOLECULE
*****
 44 45 0 0 0
SMALL
GASTEIGER

@<TRIPOS>ATOM
      1 O          60.2608   88.4911    9.8967 O.3     1  UNL1        0.0000
      2 P          60.1563   89.3013   11.1547 P.3     1  UNL1        0.0000
      3 O          59.3894   88.1894   11.8070 O.2     1  UNL1        0.0000
      4 O          60.0518   90.1115   12.4128 O.3     1  UNL1        0.0000
      5 H          59.5616   89.6082   13.0816 H       1  UNL1        0.0000
      6 C          60.9233   90.4131   10.5024 C.3     1  UNL1        0.0000
      7 O          62.4108   90.3051   10.3425 O.3     1  UNL1        0.0000
      8 C          63.5461   89.7609   12.6151 C.3     1  UNL1        0.0000
      9 C          63.3171   90.7021   11.4698 C.3     1  UNL1        0.0000
     10 C          63.9947   92.0403   11.4518 C.3     1  UNL1        0.0000
     11 N          65.4129   92.1693   11.9230 N.ar    1  UNL1        0.0000
     12 C          66.6309   92.2228   11.0492 C.ar    1  UNL1        0.0000
     13 N          67.8328   92.3540   11.9370 N.ar    1  UNL1        0.0000
     14 C          67.3576   92.3817   13.3595 C.ar    1  UNL1        0.0000
     15 C          68.0935   92.4961   14.6615 C.ar    1  UNL1        0.0000
     16 N          69.5891   92.6103   14.6702 N.pl3   1  UNL1        0.0000
     17 N          67.3338   92.4963   15.9549 N.ar    1  UNL1        0.0000
     18 C          65.8382   92.3822   15.9462 C.ar    1  UNL1        0.0000
     19 N          65.1023   92.2678   14.6442 N.ar    1  UNL1        0.0000
     20 C          65.8620   92.2676   13.3508 C.ar    1  UNL1        0.0000
     21 H          70.0878   92.6101   13.8213 H       1  UNL1        0.0000
     22 H          70.0722   92.6853   15.5248 H       1  UNL1        0.0000
     23 C          59.8153   89.0754    8.5890 C.3     1  UNL1        0.0000
     24 C          59.3630   88.1730    7.4795 C.3     1  UNL1        0.0000
     25 C          58.9734   86.7555    7.7774 C.3     1  UNL1        0.0000
     26 O          60.0198   85.6812    7.8102 O.3     1  UNL1        0.0000
     27 C          61.4706   86.0434    7.6922 C.3     1  UNL1        0.0000
     28 C          62.4547   85.5377    8.7050 C.3     1  UNL1        0.0000
     29 C          62.3527   85.9788   10.1351 C.3     1  UNL1        0.0000
     30 C          62.2718   84.9578   11.2310 C.3     1  UNL1        0.0000
     31 C          63.5125   84.5481   11.9676 C.3     1  UNL1        0.0000
     32 C          64.4254   83.5123   11.3813 C.3     1  UNL1        0.0000
     33 C          63.8926   82.5141   10.3965 C.3     1  UNL1        0.0000
     34 C          63.1482   81.3057   10.8818 C.3     1  UNL1        0.0000
     35 C          63.1231   80.9779   12.3453 C.3     1  UNL1        0.0000
     36 C          61.8573   81.1516   13.1312 C.3     1  UNL1        0.0000
     37 C          61.8682   81.9434   14.4052 C.3     1  UNL1        0.0000
     38 C          63.1514   82.5329   14.9109 C.3     1  UNL1        0.0000
     39 C          63.1854   83.9521   15.3951 C.1     1  UNL1        0.0000
     40 C          63.2193   85.3715   15.8793 C.1     1  UNL1        0.0000
     41 SI         63.2532   86.7908   16.3635 Si      1  UNL1        0.0000
     42 C          62.4417   86.4008   17.5634 C.3     1  UNL1        0.0000
     43 C          64.0646   87.1807   15.1637 C.3     1  UNL1        0.0000
     44 C          63.2870   88.2100   16.8478 C.3     1  UNL1        0.0000
@<TRIPOS>BOND
     1     9     8    1
     2     9    10    1
     3    10    11    1
     4    11    12   ar
     5    12    13   ar
     6    13    14   ar
     7    14    15   ar
     8    15    16    1
     9    15    17   ar
    10    17    18   ar
    11    18    19   ar
    12    19    20   ar
    13     9     7    1
    14     7     6    1
    15     6     2    1
    16     2     3    2
    17     2     4    1
    18     2     1    1
    19     1    23    1
    20    23    24    1
    21    24    25    1
    22    25    26    1
    23    26    27    1
    24    27    28    1
    25    28    29    1
    26    29    30    1
    27    30    31    1
    28    31    32    1
    29    32    33    1
    30    33    34    1
    31    34    35    1
    32    35    36    1
    33    36    37    1
    34    37    38    1
    35    38    39    1
    36    39    40    3
    37    40    41    1
    38    41    42    1
    39    41    43    1
    40    41    44    1
    41    20    11   ar
    42    20    14   ar
    43    16    21    1
    44    16    22    1
    45     4     5    1
@<TRIPOS>MOLECULE
*****
 44 45 0 0 0
SMALL
GASTEIGER

@<TRIPOS>ATOM
      1 O          63.4983   88.5869   15.8403 O.3     1  UNL1        0.0000
      2 P          63.4327   90.0442   15.4910 P.3     1  UNL1        0.0000
      3 O          63.0653   90.3675   16.9089 O.2     1  UNL1        0.0000
      4 O          63.3670   91.5014   15.1416 O.3     1  UNL1        0.0000
      5 H          63.1289   92.0127   15.9308 H       1  UNL1        0.0000
      6 C          63.8001   89.7208   14.0731 C.3     1  UNL1        0.0000
      7 O          62.9011   90.1453   12.9499 O.3     1  UNL1        0.0000
      8 C          63.3000   90.4105   10.3963 C.3     1  UNL1        0.0000
      9 C          63.4591   90.9250   11.7963 C.3     1  UNL1        0.0000
     10 C          64.1763   92.2193   12.0428 C.3     1  UNL1        0.0000
     11 N          65.6645   92.2280   12.2309 N.ar    1  UNL1        0.0000
     12 C          66.6911   92.0831   11.1470 C.ar    1  UNL1        0.0000
     13 N          68.0483   92.1488   11.7823 N.ar    1  UNL1        0.0000
     14 C          67.8605   92.3343   13.2588 C.ar    1  UNL1        0.0000
     15 C          68.8407   92.4650   14.3867 C.ar    1  UNL1        0.0000
     16 N          70.3141   92.4160   14.1094 N.pl3   1  UNL1        0.0000
     17 N          68.3476   92.6447   15.7918 N.ar    1  UNL1        0.0000
     18 C          66.8743   92.6937   16.0691 C.ar    1  UNL1        0.0000
     19 N          65.8941   92.5630   14.9413 N.ar    1  UNL1        0.0000
     20 C          66.3872   92.3833   13.5362 C.ar    1  UNL1        0.0000
     21 H          70.6377   92.2981   13.1871 H       1  UNL1        0.0000
     22 H          70.9574   92.5018   14.8497 H       1  UNL1        0.0000
     23 C          63.0413   88.1178   17.1898 C.3     1  UNL1        0.0000
     24 C          62.7658   86.6620   17.4241 C.3     1  UNL1        0.0000
     25 C          63.3980   85.6275   16.5410 C.3     1  UNL1        0.0000
     26 O          63.7014   85.9491   15.1076 O.3     1  UNL1        0.0000
     27 C          63.7332   84.8535   14.0836 C.3     1  UNL1        0.0000
     28 C          62.4916   84.0645   13.7904 C.3     1  UNL1        0.0000
     29 C          62.2696   82.7398   14.4582 C.3     1  UNL1        0.0000
     30 C          62.0459   81.5100   13.6290 C.3     1  UNL1        0.0000
     31 C          63.1000   81.0539   12.6643 C.3     1  UNL1        0.0000
     32 C          63.0769   81.5370   11.2444 C.3     1  UNL1        0.0000
     33 C          64.2753   82.2317   10.6689 C.3     1  UNL1        0.0000
     34 C          64.2311   83.7073   10.4033 C.3     1  UNL1        0.0000
     35 C          63.0211   84.3179    9.7609 C.3     1  UNL1        0.0000
     36 C          63.1598   85.0906    8.4827 C.3     1  UNL1        0.0000
     37 C          62.2011   84.8517    7.3541 C.3     1  UNL1        0.0000
     38 C          60.9001   85.5967    7.3048 C.3     1  UNL1        0.0000
     39 C          60.6308   86.7013    8.2832 C.1     1  UNL1        0.0000
     40 C          60.3615   87.8060    9.2617 C.1     1  UNL1        0.0000
     41 SI         60.0922   88.9106   10.2401 Si      1  UNL1        0.0000
     42 C          59.9641   89.8839    9.1059 C.3     1  UNL1        0.0000
     43 C          60.2204   87.9373   11.3742 C.3     1  UNL1        0.0000
     44 C          59.8230   90.0153   11.2184 C.3     1  UNL1        0.0000
@<TRIPOS>BOND
     1     9     8    1
     2     9    10    1
     3    10    11    1
     4    11    12   ar
     5    12    13   ar
     6    13    14   ar
     7    14    15   ar
     8    15    16    1
     9    15    17   ar
    10    17    18   ar
    11    18    19   ar
    12    19    20   ar
    13     9     7    1
    14     7     6    1
    15     6     2    1
    16     2     3    2
    17     2     4    1
    18     2     1    1
    19     1    23    1
    20    23    24    1
    21    24    25    1
    22    25    26    1
    23    26    27    1
    24    27    28    1
    25    28    29    1
    26    29    30    1
    27    30    31    1
    28    31    32    1
    29    32    33    1
    30    33    34    1
    31    34    35    1
    32    35    36    1
    33    36    37    1
    34    37    38    1
    35    38    39    1
    36    39    40    3
    37    40    41    1
    38    41    42    1
    39    41    43    1
    40    41    44    1
    41    20    11   ar
    42    20    14   ar
    43    16    21    1
    44    16    22    1
    45     4     5    1
@<TRIPOS>MOLECULE
*****
 44 45 0 0 0
SMALL
GASTEIGER

@<TRIPOS>ATOM
      1 O          60.5774   88.4319    8.6051 O.3     1  UNL1        0.0000
      2 P          59.5840   87.4400    8.0767 P.3     1  UNL1        0.0000
      3 O          58.8878   88.5367    7.3266 O.2     1  UNL1        0.0000
      4 O          58.5906   86.4481    7.5483 O.3     1  UNL1        0.0000
      5 H          57.9520   86.9029    6.9771 H       1  UNL1        0.0000
      6 C          60.2801   86.3433    8.8267 C.3     1  UNL1        0.0000
      7 O          61.7776   86.3260    8.9117 O.3     1  UNL1        0.0000
      8 C          62.3649   84.8568    6.8510 C.3     1  UNL1        0.0000
      9 C          62.5505   85.1951    8.3005 C.3     1  UNL1        0.0000
     10 C          63.5091   84.4023    9.1389 C.3     1  UNL1        0.0000
     11 N          63.1660   84.0729   10.5616 N.ar    1  UNL1        0.0000
     12 C          62.9043   85.0633   11.6574 C.ar    1  UNL1        0.0000
     13 N          62.6010   84.2977   12.9111 N.ar    1  UNL1        0.0000
     14 C          62.6753   82.8344   12.5903 C.ar    1  UNL1        0.0000
     15 C          62.4701   81.6104   13.4327 C.ar    1  UNL1        0.0000
     16 N          62.1208   81.7493   14.8849 N.pl3   1  UNL1        0.0000
     17 N          62.6140   80.2475   12.8230 N.ar    1  UNL1        0.0000
     18 C          62.9633   80.1086   11.3709 C.ar    1  UNL1        0.0000
     19 N          63.1685   81.3325   10.5284 N.ar    1  UNL1        0.0000
     20 C          63.0245   82.6954   11.1381 C.ar    1  UNL1        0.0000
     21 H          62.0263   82.6439   15.2850 H       1  UNL1        0.0000
     22 H          61.9861   80.9460   15.4378 H       1  UNL1        0.0000
     23 C          60.1217   89.7968    9.0288 C.3     1  UNL1        0.0000
     24 C          60.1721   90.1887   10.4758 C.3     1  UNL1        0.0000
     25 C          60.1047   89.1347   11.5410 C.3     1  UNL1        0.0000
     26 O          61.2324   88.1590   11.7029 O.3     1  UNL1        0.0000
     27 C          62.6528   88.6326   11.6133 C.3     1  UNL1        0.0000
     28 C          63.1900   89.5902   12.6352 C.3     1  UNL1        0.0000
     29 C          63.5631   90.9860   12.2320 C.3     1  UNL1        0.0000
     30 C          63.7454   91.3244   10.7821 C.3     1  UNL1        0.0000
     31 C          64.5597   92.5208   10.3877 C.3     1  UNL1        0.0000
     32 C          65.9519   92.6890   10.9199 C.3     1  UNL1        0.0000
     33 C          66.2482   93.7697   11.9171 C.3     1  UNL1        0.0000
     34 C          66.4051   93.4278   13.3691 C.3     1  UNL1        0.0000
     35 C          66.9029   92.0710   13.7707 C.3     1  UNL1        0.0000
     36 C          66.1590   91.2736   14.8006 C.3     1  UNL1        0.0000
     37 C          65.1800   91.9530   15.7117 C.3     1  UNL1        0.0000
     38 C          63.8501   91.3179   15.9910 C.3     1  UNL1        0.0000
     39 C          63.7312   89.8240   16.0557 C.1     1  UNL1        0.0000
     40 C          63.6122   88.3301   16.1204 C.1     1  UNL1        0.0000
     41 SI         63.4933   86.8362   16.1851 Si      1  UNL1        0.0000
     42 C          62.7023   86.9541   17.4542 C.3     1  UNL1        0.0000
     43 C          64.2843   86.7183   14.9161 C.3     1  UNL1        0.0000
     44 C          63.3744   85.3424   16.2499 C.3     1  UNL1        0.0000
@<TRIPOS>BOND
     1     9     8    1
     2     9    10    1
     3    10    11    1
     4    11    12   ar
     5    12    13   ar
     6    13    14   ar
     7    14    15   ar
     8    15    16    1
     9    15    17   ar
    10    17    18   ar
    11    18    19   ar
    12    19    20   ar
    13     9     7    1
    14     7     6    1
    15     6     2    1
    16     2     3    2
    17     2     4    1
    18     2     1    1
    19     1    23    1
    20    23    24    1
    21    24    25    1
    22    25    26    1
    23    26    27    1
    24    27    28    1
    25    28    29    1
    26    29    30    1
    27    30    31    1
    28    31    32    1
    29    32    33    1
    30    33    34    1
    31    34    35    1
    32    35    36    1
    33    36    37    1
    34    37    38    1
    35    38    39    1
    36    39    40    3
    37    40    41    1
    38    41    42    1
    39    41    43    1
    40    41    44    1
    41    20    11   ar
    42    20    14   ar
    43    16    21    1
    44    16    22    1
    45     4     5    1
@<TRIPOS>MOLECULE
*****
 44 45 0 0 0
SMALL
GASTEIGER

@<TRIPOS>ATOM
      1 O          63.7040   88.9446   14.5314 O.3     1  UNL1        0.0000
      2 P          63.5051   90.0859   15.4843 P.3     1  UNL1        0.0000
      3 O          62.7810   89.1718   16.4278 O.2     1  UNL1        0.0000
      4 O          63.3061   91.2271   16.4372 O.3     1  UNL1        0.0000
      5 H          62.8218   90.9158   17.2178 H       1  UNL1        0.0000
      6 C          64.2291   90.9999   14.5407 C.3     1  UNL1        0.0000
      7 O          65.7287   91.0320   14.5302 O.3     1  UNL1        0.0000
      8 C          67.3417   92.3225   16.1059 C.3     1  UNL1        0.0000
      9 C          66.4545   92.2925   14.8967 C.3     1  UNL1        0.0000
     10 C          66.2932   93.5230   14.0541 C.3     1  UNL1        0.0000
     11 N          66.6733   93.4936   12.6033 N.ar    1  UNL1        0.0000
     12 C          67.3596   92.3638   11.8944 C.ar    1  UNL1        0.0000
     13 N          67.5443   92.7609   10.4597 N.ar    1  UNL1        0.0000
     14 C          66.9722   94.1361   10.2820 C.ar    1  UNL1        0.0000
     15 C          66.8720   95.0345    9.0850 C.ar    1  UNL1        0.0000
     16 N          67.4102   94.5816    7.7602 N.pl3   1  UNL1        0.0000
     17 N          66.2334   96.3857    9.2129 N.ar    1  UNL1        0.0000
     18 C          65.6951   96.8385   10.5377 C.ar    1  UNL1        0.0000
     19 N          65.7954   95.9402   11.7347 N.ar    1  UNL1        0.0000
     20 C          66.4339   94.5890   11.6069 C.ar    1  UNL1        0.0000
     21 H          67.8294   93.6948    7.6763 H       1  UNL1        0.0000
     22 H          67.3444   95.1713    6.9746 H       1  UNL1        0.0000
     23 C          64.1273   87.6015   15.0477 C.3     1  UNL1        0.0000
     24 C          64.2706   86.4456   14.1025 C.3     1  UNL1        0.0000
     25 C          64.7376   85.1141   14.6113 C.3     1  UNL1        0.0000
     26 O          64.0711   84.4903   15.8015 O.3     1  UNL1        0.0000
     27 C          62.6389   84.0530   15.7155 C.3     1  UNL1        0.0000
     28 C          62.1363   83.3694   14.4785 C.3     1  UNL1        0.0000
     29 C          62.0326   81.8735   14.4378 C.3     1  UNL1        0.0000
     30 C          61.7130   81.1786   13.1474 C.3     1  UNL1        0.0000
     31 C          62.8224   80.6955   12.2610 C.3     1  UNL1        0.0000
     32 C          63.2575   81.5208   11.0864 C.3     1  UNL1        0.0000
     33 C          63.6543   82.9539   11.2826 C.3     1  UNL1        0.0000
     34 C          63.0754   84.0200   10.4004 C.3     1  UNL1        0.0000
     35 C          63.6333   84.2406    9.0256 C.3     1  UNL1        0.0000
     36 C          63.1050   85.3550    8.1717 C.3     1  UNL1        0.0000
     37 C          61.8163   85.1808    7.4243 C.3     1  UNL1        0.0000
     38 C          60.5878   85.9200    7.8651 C.3     1  UNL1        0.0000
     39 C          60.7008   87.0355    8.8615 C.1     1  UNL1        0.0000
     40 C          60.8137   88.1511    9.8580 C.1     1  UNL1        0.0000
     41 SI         60.9266   89.2667   10.8544 Si      1  UNL1        0.0000
     42 C          59.6991   88.7647   11.5555 C.3     1  UNL1        0.0000
     43 C          62.1540   89.7686   10.1533 C.3     1  UNL1        0.0000
     44 C          61.0394   90.3822   11.8508 C.3     1  UNL1        0.0000
@<TRIPOS>BOND
     1     9     8    1
     2     9    10    1
     3    10    11    1
     4    11    12   ar
     5    12    13   ar
     6    13    14   ar
     7    14    15   ar
     8    15    16    1
     9    15    17   ar
    10    17    18   ar
    11    18    19   ar
    12    19    20   ar
    13     9     7    1
    14     7     6    1
    15     6     2    1
    16     2     3    2
    17     2     4    1
    18     2     1    1
    19     1    23    1
    20    23    24    1
    21    24    25    1
    22    25    26    1
    23    26    27    1
    24    27    28    1
    25    28    29    1
    26    29    30    1
    27    30    31    1
    28    31    32    1
    29    32    33    1
    30    33    34    1
    31    34    35    1
    32    35    36    1
    33    36    37    1
    34    37    38    1
    35    38    39    1
    36    39    40    3
    37    40    41    1
    38    41    42    1
    39    41    43    1
    40    41    44    1
    41    20    11   ar
    42    20    14   ar
    43    16    21    1
    44    16    22    1
    45     4     5    1
@<TRIPOS>MOLECULE
*****
 44 45 0 0 0
SMALL
GASTEIGER

@<TRIPOS>ATOM
      1 O          59.3411   90.1868    5.5752 O.3     1  UNL1        0.0000
      2 P          58.3834   91.2917    5.2402 P.3     1  UNL1        0.0000
      3 O          57.2723   90.5278    5.8974 O.2     1  UNL1        0.0000
      4 O          57.4258   92.3965    4.9052 O.3     1  UNL1        0.0000
      5 H          56.5419   92.1690    5.2337 H       1  UNL1        0.0000
      6 C          59.4946   92.0555    4.5830 C.3     1  UNL1        0.0000
      7 O          59.2582   92.7439    3.2715 O.3     1  UNL1        0.0000
      8 C          60.3910   94.8391    2.2337 C.3     1  UNL1        0.0000
      9 C          60.4055   93.3698    2.5353 C.3     1  UNL1        0.0000
     10 C          61.5674   92.5263    2.1009 C.3     1  UNL1        0.0000
     11 N          62.5371   93.0520    1.0843 N.ar    1  UNL1        0.0000
     12 C          63.9843   93.3644    1.3253 C.ar    1  UNL1        0.0000
     13 N          64.5714   93.8629    0.0382 N.ar    1  UNL1        0.0000
     14 C          63.4871   93.8587   -0.9983 C.ar    1  UNL1        0.0000
     15 C          63.4822   94.2465   -2.4473 C.ar    1  UNL1        0.0000
     16 N          64.7395   94.7477   -3.0938 N.pl3   1  UNL1        0.0000
     17 N          62.2200   94.1331   -3.2497 N.ar    1  UNL1        0.0000
     18 C          60.9627   93.6319   -2.6032 C.ar    1  UNL1        0.0000
     19 N          60.9676   93.2441   -1.1542 N.ar    1  UNL1        0.0000
     20 C          62.2298   93.3575   -0.3518 C.ar    1  UNL1        0.0000
     21 H          65.5679   94.8222   -2.5671 H       1  UNL1        0.0000
     22 H          64.7363   95.0022   -4.0448 H       1  UNL1        0.0000
     23 C          59.0285   89.2364    6.6927 C.3     1  UNL1        0.0000
     24 C          59.9111   89.1873    7.9045 C.3     1  UNL1        0.0000
     25 C          60.0887   87.8986    8.6513 C.3     1  UNL1        0.0000
     26 O          61.2632   87.7178    9.5665 O.3     1  UNL1        0.0000
     27 C          61.0819   87.0474   10.8960 C.3     1  UNL1        0.0000
     28 C          62.1963   86.2334   11.4838 C.3     1  UNL1        0.0000
     29 C          62.3674   84.7975   11.0848 C.3     1  UNL1        0.0000
     30 C          63.2762   84.4384    9.9468 C.3     1  UNL1        0.0000
     31 C          64.1449   83.2189   10.0366 C.3     1  UNL1        0.0000
     32 C          64.1094   82.3617   11.2670 C.3     1  UNL1        0.0000
     33 C          63.1182   81.2407   11.3718 C.3     1  UNL1        0.0000
     34 C          62.4736   80.9304   12.6901 C.3     1  UNL1        0.0000
     35 C          63.0754   81.4529   13.9608 C.3     1  UNL1        0.0000
     36 C          62.7992   82.8609   14.3980 C.3     1  UNL1        0.0000
     37 C          63.9001   83.6935   14.9852 C.3     1  UNL1        0.0000
     38 C          64.4806   84.8316   14.1993 C.3     1  UNL1        0.0000
     39 C          64.2750   86.2438   14.6610 C.1     1  UNL1        0.0000
     40 C          64.0694   87.6562   15.1228 C.1     1  UNL1        0.0000
     41 SI         63.8637   89.0684   15.5846 Si      1  UNL1        0.0000
     42 C          63.1490   88.5656   16.8039 C.3     1  UNL1        0.0000
     43 C          64.5784   89.5711   14.3654 C.3     1  UNL1        0.0000
     44 C          63.6580   90.4806   16.0465 C.3     1  UNL1        0.0000
@<TRIPOS>BOND
     1     9     8    1
     2     9    10    1
     3    10    11    1
     4    11    12   ar
     5    12    13   ar
     6    13    14   ar
     7    14    15   ar
     8    15    16    1
     9    15    17   ar
    10    17    18   ar
    11    18    19   ar
    12    19    20   ar
    13     9     7    1
    14     7     6    1
    15     6     2    1
    16     2     3    2
    17     2     4    1
    18     2     1    1
    19     1    23    1
    20    23    24    1
    21    24    25    1
    22    25    26    1
    23    26    27    1
    24    27    28    1
    25    28    29    1
    26    29    30    1
    27    30    31    1
    28    31    32    1
    29    32    33    1
    30    33    34    1
    31    34    35    1
    32    35    36    1
    33    36    37    1
    34    37    38    1
    35    38    39    1
    36    39    40    3
    37    40    41    1
    38    41    42    1
    39    41    43    1
    40    41    44    1
    41    20    11   ar
    42    20    14   ar
    43    16    21    1
    44    16    22    1
    45     4     5    1
@<TRIPOS>MOLECULE
*****
 44 45 0 0 0
SMALL
GASTEIGER

@<TRIPOS>ATOM
      1 O          62.9497   84.4334   14.3376 O.3     1  UNL1        0.0000
      2 P          64.2600   85.0927   14.6517 P.3     1  UNL1        0.0000
      3 O          64.8358   83.7631   15.0400 O.2     1  UNL1        0.0000
      4 O          65.5702   85.7519   14.9659 O.3     1  UNL1        0.0000
      5 H          66.2037   85.0834   15.2703 H       1  UNL1        0.0000
      6 C          63.6841   86.4222   14.2634 C.3     1  UNL1        0.0000
      7 O          64.4053   87.6865   14.6256 O.3     1  UNL1        0.0000
      8 C          63.0905   88.3701   16.7596 C.3     1  UNL1        0.0000
      9 C          63.7144   88.7356   15.4454 C.3     1  UNL1        0.0000
     10 C          63.6475   90.1503   14.9511 C.3     1  UNL1        0.0000
     11 N          64.5886   91.1817   15.4994 N.ar    1  UNL1        0.0000
     12 C          64.3829   91.9882   16.7473 C.ar    1  UNL1        0.0000
     13 N          65.5678   92.8926   16.9151 N.ar    1  UNL1        0.0000
     14 C          66.5057   92.6450   15.7711 C.ar    1  UNL1        0.0000
     15 C          67.8327   93.2457   15.4130 C.ar    1  UNL1        0.0000
     16 N          68.4379   94.3031   16.2880 N.pl3   1  UNL1        0.0000
     17 N          68.5544   92.7891   14.1799 N.ar    1  UNL1        0.0000
     18 C          67.9492   91.7317   13.3049 C.ar    1  UNL1        0.0000
     19 N          66.6223   91.1309   13.6630 N.ar    1  UNL1        0.0000
     20 C          65.9006   91.5876   14.8961 C.ar    1  UNL1        0.0000
     21 H          67.9642   94.6028   17.0973 H       1  UNL1        0.0000
     22 H          69.3088   94.6974   16.0530 H       1  UNL1        0.0000
     23 C          62.6304   83.0864   14.9150 C.3     1  UNL1        0.0000
     24 C          61.8076   82.1092   14.1288 C.3     1  UNL1        0.0000
     25 C          62.4617   81.2346   13.1006 C.3     1  UNL1        0.0000
     26 O          63.7747   81.6383   12.4983 O.3     1  UNL1        0.0000
     27 C          63.8125   82.2818   11.1438 C.3     1  UNL1        0.0000
     28 C          63.7979   83.7768   11.0230 C.3     1  UNL1        0.0000
     29 C          62.4941   84.5054   10.8834 C.3     1  UNL1        0.0000
     30 C          62.4427   85.8190   10.1610 C.3     1  UNL1        0.0000
     31 C          62.1159   85.8580    8.6976 C.3     1  UNL1        0.0000
     32 C          60.7388   86.2458    8.2467 C.3     1  UNL1        0.0000
     33 C          60.2869   87.6718    8.3584 C.3     1  UNL1        0.0000
     34 C          59.9576   88.2510    9.7023 C.3     1  UNL1        0.0000
     35 C          60.4598   89.6145   10.0748 C.3     1  UNL1        0.0000
     36 C          61.5629   89.7585   11.0810 C.3     1  UNL1        0.0000
     37 C          62.8999   90.2902   10.6572 C.3     1  UNL1        0.0000
     38 C          63.6141   91.2929   11.5142 C.3     1  UNL1        0.0000
     39 C          64.7264   92.1167   10.9362 C.1     1  UNL1        0.0000
     40 C          65.8388   92.9405   10.3581 C.1     1  UNL1        0.0000
     41 SI         66.9510   93.7644    9.7801 Si      1  UNL1        0.0000
     42 C          66.1443   95.0094   10.0023 C.3     1  UNL1        0.0000
     43 C          67.7576   92.5194    9.5578 C.3     1  UNL1        0.0000
     44 C          68.0632   94.5883    9.2020 C.3     1  UNL1        0.0000
@<TRIPOS>BOND
     1     9     8    1
     2     9    10    1
     3    10    11    1
     4    11    12   ar
     5    12    13   ar
     6    13    14   ar
     7    14    15   ar
     8    15    16    1
     9    15    17   ar
    10    17    18   ar
    11    18    19   ar
    12    19    20   ar
    13     9     7    1
    14     7     6    1
    15     6     2    1
    16     2     3    2
    17     2     4    1
    18     2     1    1
    19     1    23    1
    20    23    24    1
    21    24    25    1
    22    25    26    1
    23    26    27    1
    24    27    28    1
    25    28    29    1
    26    29    30    1
    27    30    31    1
    28    31    32    1
    29    32    33    1
    30    33    34    1
    31    34    35    1
    32    35    36    1
    33    36    37    1
    34    37    38    1
    35    38    39    1
    36    39    40    3
    37    40    41    1
    38    41    42    1
    39    41    43    1
    40    41    44    1
    41    20    11   ar
    42    20    14   ar
    43    16    21    1
    44    16    22    1
    45     4     5    1
