@<TRIPOS>MOLECULE
*****
 34 37 0 0 0
SMALL
GASTEIGER

@<TRIPOS>ATOM
      1 N          62.9679   90.7814   11.6893 N.am    1  UNL1       -0.2438
      2 C          63.5322   91.3690   10.4298 C.3     1  UNL1        0.1009
      3 C          64.7193   92.2837   10.4951 C.3     1  UNL1        0.0661
      4 C          65.3421   92.6106   11.8200 C.3     1  UNL1        0.1578
      5 O          64.7779   92.0230   13.0794 O.3     1  UNL1       -0.4375
      6 C          63.5908   91.1084   13.0141 C.2     1  UNL1        0.4051
      7 O          63.0265   90.5208   14.2736 O.2     1  UNL1       -0.2262
      8 C          66.2297   93.4080   10.9110 C.ar    1  UNL1        0.0137
      9 C          67.2759   92.7164   10.0881 C.ar    1  UNL1       -0.0010
     10 C          68.1635   93.5137    9.1791 C.ar    1  UNL1       -0.0002
     11 C          68.0050   95.0028    9.0929 C.ar    1  UNL1       -0.0000
     12 C          66.9588   95.6946    9.9157 C.ar    1  UNL1       -0.0002
     13 C          66.0712   94.8972   10.8247 C.ar    1  UNL1       -0.0010
     14 C          61.7809   89.8667   11.6239 C.3     1  UNL1        0.1011
     15 C          60.3955   90.4389   11.5667 C.3     1  UNL1        0.0265
     16 C          62.3758   85.4063   11.5998 C.ar    1  UNL1        0.0015
     17 C          63.2455   86.2743   12.4601 C.ar    1  UNL1       -0.0002
     18 C          63.0472   87.7611   12.4682 C.ar    1  UNL1       -0.0027
     19 C          61.9792   88.3799   11.6159 C.ar    1  UNL1       -0.0042
     20 C          61.1095   87.5120   10.7555 C.ar    1  UNL1       -0.0027
     21 C          61.3078   86.0251   10.7475 C.ar    1  UNL1       -0.0002
     22 C          62.9707   80.9459   11.5756 C.ar    1  UNL1        0.2250
     23 C          63.4015   81.7664   10.3962 C.ar    1  UNL1        0.0577
     24 C          63.2032   83.2532   10.4042 C.ar    1  UNL1        0.0063
     25 C          62.5741   83.9195   11.5917 C.ar    1  UNL1        0.0194
     26 C          62.1433   83.0990   12.7711 C.ar    1  UNL1        0.1020
     27 N          62.3416   81.6122   12.7631 N.ar    1  UNL1       -0.2101
     28 C          62.8301   78.6638   10.3417 C.3     1  UNL1        0.2542
     29 O          63.1690   79.4591   11.5676 O.3     1  UNL1       -0.4561
     30 C          66.2732   93.2146   12.8291 C.3     1  UNL1        0.0471
     31 C          66.6904   92.4227   14.0328 C.3     1  UNL1        0.0357
     32 C          68.1200   91.9972   14.1920 C.3     1  UNL1        0.1373
     33 O          68.9337   91.6356   12.9849 O.3     1  UNL1       -0.3820
     34 H          68.5699   90.8336   12.5781 H       1  UNL1        0.2104
@<TRIPOS>BOND
     1    28    29    1
     2    29    22    1
     3    22    23   ar
     4    23    24   ar
     5    24    25   ar
     6    25    16    1
     7    16    17   ar
     8    17    18   ar
     9    18    19   ar
    10    19    14    1
    11    14    15    1
    12    14     1    1
    13     1     2    1
    14     2     3    1
    15     3     4    1
    16     4    30    1
    17    30    31    1
    18    31    32    1
    19    32    33    1
    20     4     8    1
    21     8     9   ar
    22     9    10   ar
    23    10    11   ar
    24    11    12   ar
    25    12    13   ar
    26     4     5    1
    27     5     6    1
    28     6     7    2
    29    19    20   ar
    30    20    21   ar
    31    25    26   ar
    32    26    27   ar
    33    27    22   ar
    34    21    16   ar
    35     6     1   am
    36    13     8   ar
    37    33    34    1
@<TRIPOS>MOLECULE
*****
 34 37 0 0 0
SMALL
GASTEIGER

@<TRIPOS>ATOM
      1 N          63.3711   90.4082   12.0461 N.am    1  UNL1       -0.2438
      2 C          64.0740   90.2942   13.3663 C.3     1  UNL1        0.1009
      3 C          65.2851   91.1339   13.6461 C.3     1  UNL1        0.0661
      4 C          65.7932   92.0875   12.6057 C.3     1  UNL1        0.1578
      5 O          65.0903   92.2015   11.2855 O.3     1  UNL1       -0.4375
      6 C          63.8793   91.3618   11.0057 C.2     1  UNL1        0.4051
      7 O          63.1763   91.4758    9.6855 O.2     1  UNL1       -0.2262
      8 C          66.7932   92.3345   13.6961 C.ar    1  UNL1        0.0137
      9 C          66.3644   92.9987   14.9708 C.ar    1  UNL1       -0.0010
     10 C          67.3644   93.2457   16.0611 C.ar    1  UNL1       -0.0002
     11 C          68.7933   92.8284   15.8769 C.ar    1  UNL1       -0.0000
     12 C          69.2223   92.1642   14.6022 C.ar    1  UNL1       -0.0002
     13 C          68.2223   91.9172   13.5118 C.ar    1  UNL1       -0.0010
     14 C          62.1600   89.5685   11.7663 C.3     1  UNL1        0.1011
     15 C          60.8350   90.2243   11.5132 C.3     1  UNL1        0.0265
     16 C          62.5021   85.0823   11.6860 C.ar    1  UNL1        0.0015
     17 C          63.2781   85.8757   12.6951 C.ar    1  UNL1       -0.0002
     18 C          63.1641   87.3711   12.7219 C.ar    1  UNL1       -0.0027
     19 C          62.2741   88.0731   11.7395 C.ar    1  UNL1       -0.0042
     20 C          61.4980   87.2797   10.7305 C.ar    1  UNL1       -0.0027
     21 C          61.6121   85.7843   10.7037 C.ar    1  UNL1       -0.0002
     22 C          62.8442   80.5960   11.6058 C.ar    1  UNL1        0.2250
     23 C          63.2380   81.3999   10.4022 C.ar    1  UNL1        0.0577
     24 C          63.1240   82.8953   10.4289 C.ar    1  UNL1        0.0063
     25 C          62.6161   83.5869   11.6593 C.ar    1  UNL1        0.0194
     26 C          62.2223   82.7830   12.8629 C.ar    1  UNL1        0.1020
     27 N          62.3363   81.2876   12.8361 N.ar    1  UNL1       -0.2101
     28 C          62.7692   78.3569   10.2902 C.3     1  UNL1        0.2542
     29 O          62.9582   79.1006   11.5790 O.3     1  UNL1       -0.4561
     30 C          66.6487   93.1269   11.9440 C.3     1  UNL1        0.0471
     31 C          66.8256   93.1154   10.4545 C.3     1  UNL1        0.0357
     32 C          68.0432   92.4825    9.8488 C.3     1  UNL1        0.1373
     33 O          69.3330   93.2457    9.7869 O.3     1  UNL1       -0.3820
     34 H          69.2314   94.0047    9.1915 H       1  UNL1        0.2104
@<TRIPOS>BOND
     1    28    29    1
     2    29    22    1
     3    22    23   ar
     4    23    24   ar
     5    24    25   ar
     6    25    16    1
     7    16    17   ar
     8    17    18   ar
     9    18    19   ar
    10    19    14    1
    11    14    15    1
    12    14     1    1
    13     1     2    1
    14     2     3    1
    15     3     4    1
    16     4    30    1
    17    30    31    1
    18    31    32    1
    19    32    33    1
    20     4     8    1
    21     8     9   ar
    22     9    10   ar
    23    10    11   ar
    24    11    12   ar
    25    12    13   ar
    26     4     5    1
    27     5     6    1
    28     6     7    2
    29    19    20   ar
    30    20    21   ar
    31    25    26   ar
    32    26    27   ar
    33    27    22   ar
    34    21    16   ar
    35     6     1   am
    36    13     8   ar
    37    33    34    1
@<TRIPOS>MOLECULE
*****
 34 37 0 0 0
SMALL
GASTEIGER

@<TRIPOS>ATOM
      1 N          63.7047   87.8813   14.8982 N.am    1  UNL1       -0.2438
      2 C          63.8806   87.4940   13.4598 C.3     1  UNL1        0.1009
      3 C          63.8147   86.0502   13.0584 C.3     1  UNL1        0.0661
      4 C          63.5729   84.9937   14.0954 C.3     1  UNL1        0.1578
      5 O          63.3970   85.3810   15.5338 O.3     1  UNL1       -0.4375
      6 C          63.4629   86.8248   15.9352 C.2     1  UNL1        0.4051
      7 O          63.2870   87.2121   17.3736 O.2     1  UNL1       -0.2262
      8 C          63.6774   84.1361   12.8693 C.ar    1  UNL1        0.0137
      9 C          64.6192   82.9688   12.8484 C.ar    1  UNL1       -0.0010
     10 C          64.7237   82.1112   11.6223 C.ar    1  UNL1       -0.0002
     11 C          63.8864   82.4208   10.4169 C.ar    1  UNL1       -0.0000
     12 C          62.9446   83.5880   10.4375 C.ar    1  UNL1       -0.0002
     13 C          62.8401   84.4457   11.6637 C.ar    1  UNL1       -0.0010
     14 C          63.7705   89.3251   15.2996 C.3     1  UNL1        0.1011
     15 C          63.2537   89.7550   16.6405 C.3     1  UNL1        0.0265
     16 C          65.5188   92.3666   12.4812 C.ar    1  UNL1        0.0015
     17 C          64.1751   91.7642   12.1953 C.ar    1  UNL1       -0.0002
     18 C          63.5924   90.7504   13.1347 C.ar    1  UNL1       -0.0027
     19 C          64.3533   90.3389   14.3602 C.ar    1  UNL1       -0.0042
     20 C          65.6969   90.9413   14.6461 C.ar    1  UNL1       -0.0027
     21 C          66.2796   91.9551   13.7067 C.ar    1  UNL1       -0.0002
     22 C          67.2670   95.4080    9.6629 C.ar    1  UNL1        0.2250
     23 C          67.3093   93.9500    9.3132 C.ar    1  UNL1        0.0577
     24 C          66.7266   92.9362   10.2527 C.ar    1  UNL1        0.0063
     25 C          66.1015   93.3804   11.5418 C.ar    1  UNL1        0.0194
     26 C          66.0592   94.8384   11.8915 C.ar    1  UNL1        0.1020
     27 N          66.6419   95.8522   10.9520 N.ar    1  UNL1       -0.2101
     28 C          67.0757   96.8557    7.5140 C.3     1  UNL1        0.2542
     29 O          67.8497   96.4219    8.7234 O.3     1  UNL1       -0.4561
     30 C          63.3674   83.6394   14.7066 C.3     1  UNL1        0.0471
     31 C          61.9792   83.0990   14.8830 C.3     1  UNL1        0.0357
     32 C          61.6438   81.7202   14.3967 C.3     1  UNL1        0.1373
     33 O          62.7112   80.6685   14.3290 O.3     1  UNL1       -0.3820
     34 H          63.3707   80.9194   13.6634 H       1  UNL1        0.2104
@<TRIPOS>BOND
     1    28    29    1
     2    29    22    1
     3    22    23   ar
     4    23    24   ar
     5    24    25   ar
     6    25    16    1
     7    16    17   ar
     8    17    18   ar
     9    18    19   ar
    10    19    14    1
    11    14    15    1
    12    14     1    1
    13     1     2    1
    14     2     3    1
    15     3     4    1
    16     4    30    1
    17    30    31    1
    18    31    32    1
    19    32    33    1
    20     4     8    1
    21     8     9   ar
    22     9    10   ar
    23    10    11   ar
    24    11    12   ar
    25    12    13   ar
    26     4     5    1
    27     5     6    1
    28     6     7    2
    29    19    20   ar
    30    20    21   ar
    31    25    26   ar
    32    26    27   ar
    33    27    22   ar
    34    21    16   ar
    35     6     1   am
    36    13     8   ar
    37    33    34    1
