@<TRIPOS>MOLECULE
*****
 36 40 0 0 0
SMALL
GASTEIGER

@<TRIPOS>ATOM
      1 O          62.2525   88.4378   12.3399 O.3     1  UNL1       -0.4511
      2 C          63.1621   89.6227   12.2038 C.ar    1  UNL1        0.1748
      3 C          64.1562   89.9331   13.2835 C.ar    1  UNL1        0.0708
      4 C          65.0658   91.1180   13.1474 C.ar    1  UNL1        0.1621
      5 F          66.0598   91.4284   14.2270 F       1  UNL1       -0.2026
      6 C          64.9813   91.9926   11.9317 C.ar    1  UNL1        0.1549
      7 C          63.9873   91.6823   10.8521 C.ar    1  UNL1        0.0553
      8 C          63.0777   90.4973   10.9882 C.ar    1  UNL1        0.1759
      9 F          62.0837   90.1870    9.9085 F       1  UNL1       -0.2009
     10 S          65.8909   93.1776   11.7956 S.O2    1  UNL1        0.0769
     11 O          65.4934   93.6401   13.1661 O.2     1  UNL1       -0.1498
     12 O          66.2884   92.7151   10.4252 O.2     1  UNL1       -0.1498
     13 N          66.8005   94.3626   11.6596 N.pl3   1  UNL1       -0.1984
     14 H          67.4791   94.5440   12.3493 H       1  UNL1        0.1753
     15 C          66.6761   95.2711   10.4724 C.ar    1  UNL1        0.1542
     16 C          65.4803   96.1065   10.1230 C.ar    1  UNL1        0.0725
     17 S          65.7908   96.8555    8.8610 S.2     1  UNL1       -0.0625
     18 C          67.1786   96.4829    8.4305 C.ar    1  UNL1        0.1360
     19 N          67.7257   95.5038    9.4264 N.ar    1  UNL1       -0.2203
     20 C          63.1071   85.9954   12.1061 C.ar    1  UNL1        0.0527
     21 C          63.3359   84.7740   11.2660 C.ar    1  UNL1        0.0159
     22 C          62.9387   84.7735    9.8195 C.ar    1  UNL1        0.0579
     23 CL         63.1675   83.5520    8.9794 Cl      1  UNL1       -0.0822
     24 C          62.3129   85.9944    9.2132 C.ar    1  UNL1        0.0145
     25 C          62.0841   87.2158   10.0533 C.ar    1  UNL1        0.0384
     26 C          62.4813   87.2163   11.4997 C.ar    1  UNL1        0.1468
     27 N          63.5426   84.7997   14.4568 N.ar    1  UNL1       -0.2499
     28 N          63.9948   85.2572   15.8119 N.ar    1  UNL1       -0.1677
     29 C          64.2360   86.7362   15.7451 C.ar    1  UNL1        0.1217
     30 C          63.9328   87.1927   14.3488 C.ar    1  UNL1        0.0413
     31 C          63.5043   85.9959   13.5526 C.ar    1  UNL1        0.0824
     32 C          62.3405   79.9967   13.1474 C.3     1  UNL1        0.0897
     33 N          62.6926   81.4035   13.5309 N.3     1  UNL1       -0.2681
     34 C          61.9804   82.5212   14.2334 C.3     1  UNL1        0.0982
     35 C          63.1905   83.3930   14.0733 C.3     1  UNL1        0.1369
     36 C          63.9027   82.2752   13.3708 C.3     1  UNL1        0.0982
@<TRIPOS>BOND
     1    32    33    1
     2    33    34    1
     3    34    35    1
     4    35    27    1
     5    27    28   ar
     6    28    29   ar
     7    29    30   ar
     8    30    31   ar
     9    31    20    1
    10    20    21   ar
    11    21    22   ar
    12    22    23    1
    13    22    24   ar
    14    24    25   ar
    15    25    26   ar
    16    26     1    1
    17     1     2    1
    18     2     3   ar
    19     3     4   ar
    20     4     5    1
    21     4     6   ar
    22     6    10    1
    23    10    11    2
    24    10    12    2
    25    10    13    1
    26    13    15    1
    27    15    16   ar
    28    16    17   ar
    29    17    18   ar
    30    18    19   ar
    31     6     7   ar
    32     7     8   ar
    33     8     9    1
    34    35    36    1
    35    36    33    1
    36    31    27   ar
    37    26    20   ar
    38     8     2   ar
    39    19    15   ar
    40    13    14    1
@<TRIPOS>MOLECULE
*****
 36 40 0 0 0
SMALL
GASTEIGER

@<TRIPOS>ATOM
      1 O          62.5212   88.1151   12.4902 O.3     1  UNL1       -0.4511
      2 C          63.3430   89.3688   12.4375 C.ar    1  UNL1        0.1748
      3 C          63.2485   90.2781   11.2483 C.ar    1  UNL1        0.0708
      4 C          64.0703   91.5319   11.1956 C.ar    1  UNL1        0.1621
      5 F          63.9758   92.4412   10.0064 F       1  UNL1       -0.2026
      6 C          64.9866   91.8763   12.3322 C.ar    1  UNL1        0.1549
      7 C          65.0811   90.9669   13.5214 C.ar    1  UNL1        0.0553
      8 C          64.2593   89.7132   13.5740 C.ar    1  UNL1        0.1759
      9 F          64.3538   88.8039   14.7633 F       1  UNL1       -0.2009
     10 S          65.8084   93.1300   12.2796 S.O2    1  UNL1        0.0769
     11 O          66.1380   92.8536   10.8426 O.2     1  UNL1       -0.1498
     12 O          65.4789   93.4064   13.7166 O.2     1  UNL1       -0.1498
     13 N          66.6303   94.3837   12.2269 N.pl3   1  UNL1       -0.1984
     14 H          67.1727   94.6498   13.0043 H       1  UNL1        0.1753
     15 C          66.6256   95.2321   10.9899 C.ar    1  UNL1        0.1542
     16 C          65.5834   96.2454   10.6196 C.ar    1  UNL1        0.0725
     17 S          65.9759   96.8558    9.3069 S.2     1  UNL1       -0.0625
     18 C          67.2608   96.2197    8.8658 C.ar    1  UNL1        0.1360
     19 N          67.6623   95.2162    9.9059 N.ar    1  UNL1       -0.2203
     20 C          62.8872   85.7899   11.3902 C.ar    1  UNL1        0.0527
     21 C          62.8085   84.8938   10.1899 C.ar    1  UNL1        0.0159
     22 C          62.2850   85.4267    8.8892 C.ar    1  UNL1        0.0579
     23 CL         62.2063   84.5306    7.6888 Cl      1  UNL1       -0.0822
     24 C          61.8403   86.8558    8.7888 C.ar    1  UNL1        0.0145
     25 C          61.9190   87.7519    9.9891 C.ar    1  UNL1        0.0384
     26 C          62.4425   87.2189   11.2898 C.ar    1  UNL1        0.1468
     27 N          63.6616   83.8142   13.0157 N.ar    1  UNL1       -0.2499
     28 N          64.1811   83.7388   14.4208 N.ar    1  UNL1       -0.1677
     29 C          64.2513   85.1350   14.9646 C.ar    1  UNL1        0.1217
     30 C          63.7751   86.0733   13.8955 C.ar    1  UNL1        0.0413
     31 C          63.4107   85.2570   12.6910 C.ar    1  UNL1        0.0824
     32 C          62.8814   79.8428    9.8776 C.3     1  UNL1        0.0897
     33 N          63.1099   81.0060   10.7967 N.3     1  UNL1       -0.2681
     34 C          62.5527   81.4368   12.1210 C.3     1  UNL1        0.0982
     35 C          63.4330   82.6510   12.0966 C.3     1  UNL1        0.1369
     36 C          63.9903   82.2202   10.7722 C.3     1  UNL1        0.0982
@<TRIPOS>BOND
     1    32    33    1
     2    33    34    1
     3    34    35    1
     4    35    27    1
     5    27    28   ar
     6    28    29   ar
     7    29    30   ar
     8    30    31   ar
     9    31    20    1
    10    20    21   ar
    11    21    22   ar
    12    22    23    1
    13    22    24   ar
    14    24    25   ar
    15    25    26   ar
    16    26     1    1
    17     1     2    1
    18     2     3   ar
    19     3     4   ar
    20     4     5    1
    21     4     6   ar
    22     6    10    1
    23    10    11    2
    24    10    12    2
    25    10    13    1
    26    13    15    1
    27    15    16   ar
    28    16    17   ar
    29    17    18   ar
    30    18    19   ar
    31     6     7   ar
    32     7     8   ar
    33     8     9    1
    34    35    36    1
    35    36    33    1
    36    31    27   ar
    37    26    20   ar
    38     8     2   ar
    39    19    15   ar
    40    13    14    1
@<TRIPOS>MOLECULE
*****
 36 40 0 0 0
SMALL
GASTEIGER

@<TRIPOS>ATOM
      1 O          63.2924   90.4318   14.8668 O.3     1  UNL1       -0.4511
      2 C          63.4426   88.9414   14.9459 C.ar    1  UNL1        0.1748
      3 C          63.5903   88.1348   13.6898 C.ar    1  UNL1        0.0708
      4 C          63.7405   86.6444   13.7688 C.ar    1  UNL1        0.1621
      5 F          63.8882   85.8379   12.5129 F       1  UNL1       -0.2026
      6 C          63.7430   85.9607   15.1040 C.ar    1  UNL1        0.1549
      7 C          63.5953   86.7672   16.3600 C.ar    1  UNL1        0.0553
      8 C          63.4451   88.2576   16.2809 C.ar    1  UNL1        0.1759
      9 F          63.2973   89.0642   17.5370 F       1  UNL1       -0.2009
     10 S          63.8932   84.4703   15.1830 S.O2    1  UNL1        0.0769
     11 O          62.4683   84.3507   15.6363 O.2     1  UNL1       -0.1498
     12 O          65.3181   84.5899   14.7298 O.2     1  UNL1       -0.1498
     13 N          64.0434   82.9799   15.2621 N.pl3   1  UNL1       -0.1984
     14 H          64.4905   82.5707   16.0379 H       1  UNL1        0.1753
     15 C          63.5124   82.1131   14.1591 C.ar    1  UNL1        0.1542
     16 C          63.4496   82.4761   12.7050 C.ar    1  UNL1        0.0725
     17 S          62.8494   81.3184   11.9637 S.2     1  UNL1       -0.0625
     18 C          62.5411   80.2399   12.9597 C.ar    1  UNL1        0.1360
     19 N          62.9509   80.7311   14.3164 N.ar    1  UNL1       -0.2203
     20 C          65.0070   91.8308   13.5057 C.ar    1  UNL1        0.0527
     21 C          66.2244   92.7058   13.4591 C.ar    1  UNL1        0.0159
     22 C          66.9446   93.0569   14.7272 C.ar    1  UNL1        0.0579
     23 CL         68.1621   93.9320   14.6806 Cl      1  UNL1       -0.0822
     24 C          66.4474   92.5330   16.0418 C.ar    1  UNL1        0.0145
     25 C          65.2300   91.6579   16.0884 C.ar    1  UNL1        0.0384
     26 C          64.5098   91.3068   14.8203 C.ar    1  UNL1        0.1468
     27 N          64.4745   92.1417   10.9047 N.ar    1  UNL1       -0.2499
     28 N          63.5561   91.4761    9.9231 N.ar    1  UNL1       -0.1677
     29 C          62.8008   90.4027   10.6493 C.ar    1  UNL1        0.1217
     30 C          63.2524   90.4049   12.0797 C.ar    1  UNL1        0.0413
     31 C          64.2868   91.4797   12.2376 C.ar    1  UNL1        0.0824
     32 C          67.6868   95.9976    9.8846 C.3     1  UNL1        0.0897
     33 N          66.7460   94.8683   10.1834 N.3     1  UNL1       -0.2681
     34 C          66.7863   93.3793   10.0070 C.3     1  UNL1        0.0982
     35 C          65.4154   93.2711   10.6059 C.3     1  UNL1        0.1369
     36 C          65.3750   94.7602   10.7823 C.3     1  UNL1        0.0982
@<TRIPOS>BOND
     1    32    33    1
     2    33    34    1
     3    34    35    1
     4    35    27    1
     5    27    28   ar
     6    28    29   ar
     7    29    30   ar
     8    30    31   ar
     9    31    20    1
    10    20    21   ar
    11    21    22   ar
    12    22    23    1
    13    22    24   ar
    14    24    25   ar
    15    25    26   ar
    16    26     1    1
    17     1     2    1
    18     2     3   ar
    19     3     4   ar
    20     4     5    1
    21     4     6   ar
    22     6    10    1
    23    10    11    2
    24    10    12    2
    25    10    13    1
    26    13    15    1
    27    15    16   ar
    28    16    17   ar
    29    17    18   ar
    30    18    19   ar
    31     6     7   ar
    32     7     8   ar
    33     8     9    1
    34    35    36    1
    35    36    33    1
    36    31    27   ar
    37    26    20   ar
    38     8     2   ar
    39    19    15   ar
    40    13    14    1
@<TRIPOS>MOLECULE
*****
 36 40 0 0 0
SMALL
GASTEIGER

@<TRIPOS>ATOM
      1 O          62.8495   89.1321   13.6293 O.3     1  UNL1       -0.4511
      2 C          63.7513   90.1886   13.0630 C.ar    1  UNL1        0.1748
      3 C          63.4777   90.7576   11.7023 C.ar    1  UNL1        0.0708
      4 C          64.3795   91.8140   11.1360 C.ar    1  UNL1        0.1621
      5 F          64.1059   92.3831    9.7754 F       1  UNL1       -0.2026
      6 C          65.5548   92.3015   11.9305 C.ar    1  UNL1        0.1549
      7 C          65.8283   91.7325   13.2911 C.ar    1  UNL1        0.0553
      8 C          64.9266   90.6760   13.8574 C.ar    1  UNL1        0.1759
      9 F          65.2001   90.1070   15.2181 F       1  UNL1       -0.2009
     10 S          66.4566   93.3580   11.3642 S.O2    1  UNL1        0.0769
     11 O          66.8127   92.4452   10.2283 O.2     1  UNL1       -0.1498
     12 O          66.1005   94.2707   12.5000 O.2     1  UNL1       -0.1498
     13 N          67.3583   94.4144   10.7979 N.pl3   1  UNL1       -0.1984
     14 H          68.2816   94.5023   11.1281 H       1  UNL1        0.1753
     15 C          66.8533   95.3371    9.7284 C.ar    1  UNL1        0.1542
     16 C          67.5853   95.7197    8.4762 C.ar    1  UNL1        0.0725
     17 S          66.7121   96.6582    7.6973 S.2     1  UNL1       -0.0625
     18 C          65.4405   96.8556    8.4681 C.ar    1  UNL1        0.1360
     19 N          65.5278   96.0391    9.7233 N.ar    1  UNL1       -0.2203
     20 C          62.1668   87.2421   11.9825 C.ar    1  UNL1        0.0527
     21 C          62.2867   85.8228   11.5122 C.ar    1  UNL1        0.0159
     22 C          63.2093   84.8742   12.2184 C.ar    1  UNL1        0.0579
     23 CL         63.3292   83.4548   11.7481 Cl      1  UNL1       -0.0822
     24 C          64.0120   85.3448   13.3949 C.ar    1  UNL1        0.0145
     25 C          63.8921   86.7641   13.8652 C.ar    1  UNL1        0.0384
     26 C          62.9694   87.7127   13.1590 C.ar    1  UNL1        0.1468
     27 N          60.8001   88.0893    9.8471 N.ar    1  UNL1       -0.2499
     28 N          59.8851   89.2433    9.5627 N.ar    1  UNL1       -0.1677
     29 C          59.7636   90.0582   10.8163 C.ar    1  UNL1        0.1217
     30 C          60.6035   89.4077   11.8752 C.ar    1  UNL1        0.0413
     31 C          61.2441   88.1909   11.2763 C.ar    1  UNL1        0.0824
     32 C          62.1683   84.4424    6.5220 C.3     1  UNL1        0.0897
     33 N          61.7676   85.5105    7.4959 N.3     1  UNL1       -0.2681
     34 C          60.5149   86.2937    7.7550 C.3     1  UNL1        0.0982
     35 C          61.2008   87.0211    8.8732 C.3     1  UNL1        0.1369
     36 C          62.4536   86.2379    8.6140 C.3     1  UNL1        0.0982
@<TRIPOS>BOND
     1    32    33    1
     2    33    34    1
     3    34    35    1
     4    35    27    1
     5    27    28   ar
     6    28    29   ar
     7    29    30   ar
     8    30    31   ar
     9    31    20    1
    10    20    21   ar
    11    21    22   ar
    12    22    23    1
    13    22    24   ar
    14    24    25   ar
    15    25    26   ar
    16    26     1    1
    17     1     2    1
    18     2     3   ar
    19     3     4   ar
    20     4     5    1
    21     4     6   ar
    22     6    10    1
    23    10    11    2
    24    10    12    2
    25    10    13    1
    26    13    15    1
    27    15    16   ar
    28    16    17   ar
    29    17    18   ar
    30    18    19   ar
    31     6     7   ar
    32     7     8   ar
    33     8     9    1
    34    35    36    1
    35    36    33    1
    36    31    27   ar
    37    26    20   ar
    38     8     2   ar
    39    19    15   ar
    40    13    14    1
@<TRIPOS>MOLECULE
*****
 36 40 0 0 0
SMALL
GASTEIGER

@<TRIPOS>ATOM
      1 O          64.0742   89.5285   14.8636 O.3     1  UNL1       -0.4511
      2 C          63.8675   88.0477   14.9833 C.ar    1  UNL1        0.1748
      3 C          64.0508   87.1654   13.7841 C.ar    1  UNL1        0.0708
      4 C          63.8441   85.6846   13.9038 C.ar    1  UNL1        0.1621
      5 F          64.0274   84.8023   12.7046 F       1  UNL1       -0.2026
      6 C          63.4541   85.0860   15.2228 C.ar    1  UNL1        0.1549
      7 C          63.2708   85.9682   16.4219 C.ar    1  UNL1        0.0553
      8 C          63.4775   87.4490   16.3022 C.ar    1  UNL1        0.1759
      9 F          63.2942   88.3313   17.5015 F       1  UNL1       -0.2009
     10 S          63.2474   83.6051   15.3425 S.O2    1  UNL1        0.0769
     11 O          64.7309   83.4059   15.4400 O.2     1  UNL1       -0.1498
     12 O          61.7639   83.8043   15.2450 O.2     1  UNL1       -0.1498
     13 N          63.0407   82.1242   15.4622 N.pl3   1  UNL1       -0.1984
     14 H          63.0045   81.7025   16.3511 H       1  UNL1        0.1753
     15 C          62.8890   81.2859   14.2276 C.ar    1  UNL1        0.1542
     16 C          63.1417   81.7365   12.8193 C.ar    1  UNL1        0.0725
     17 S          62.8669   80.5790   11.9058 S.2     1  UNL1       -0.0625
     18 C          62.4443   79.4129   12.7495 C.ar    1  UNL1        0.1360
     19 N          62.4580   79.8498   14.1844 N.ar    1  UNL1       -0.2203
     20 C          64.7068   91.3857   13.1604 C.ar    1  UNL1        0.0527
     21 C          64.4886   92.0693   11.8432 C.ar    1  UNL1        0.0159
     22 C          63.4196   91.5795   10.9120 C.ar    1  UNL1        0.0579
     23 CL         63.2014   92.2632    9.5948 Cl      1  UNL1       -0.0822
     24 C          62.5687   90.4060   11.2980 C.ar    1  UNL1        0.0145
     25 C          62.7869   89.7224   12.6152 C.ar    1  UNL1        0.0384
     26 C          63.8560   90.2122   13.5464 C.ar    1  UNL1        0.1468
     27 N          67.1578   92.3067   13.6986 N.ar    1  UNL1       -0.2499
     28 N          67.8868   92.7178   14.9434 N.ar    1  UNL1       -0.1677
     29 C          66.9554   92.5407   16.1059 C.ar    1  UNL1        0.1217
     30 C          65.6508   92.0201   15.5794 C.ar    1  UNL1        0.0413
     31 C          65.7759   91.8755   14.0917 C.ar    1  UNL1        0.0824
     32 C          69.0542   92.3650    8.9417 C.3     1  UNL1        0.0897
     33 N          68.4988   92.3479   10.3350 N.3     1  UNL1       -0.2681
     34 C          67.4284   93.1090   11.0595 C.3     1  UNL1        0.0982
     35 C          67.7132   92.3238   12.3054 C.3     1  UNL1        0.1369
     36 C          68.7837   91.5626   11.5808 C.3     1  UNL1        0.0982
@<TRIPOS>BOND
     1    32    33    1
     2    33    34    1
     3    34    35    1
     4    35    27    1
     5    27    28   ar
     6    28    29   ar
     7    29    30   ar
     8    30    31   ar
     9    31    20    1
    10    20    21   ar
    11    21    22   ar
    12    22    23    1
    13    22    24   ar
    14    24    25   ar
    15    25    26   ar
    16    26     1    1
    17     1     2    1
    18     2     3   ar
    19     3     4   ar
    20     4     5    1
    21     4     6   ar
    22     6    10    1
    23    10    11    2
    24    10    12    2
    25    10    13    1
    26    13    15    1
    27    15    16   ar
    28    16    17   ar
    29    17    18   ar
    30    18    19   ar
    31     6     7   ar
    32     7     8   ar
    33     8     9    1
    34    35    36    1
    35    36    33    1
    36    31    27   ar
    37    26    20   ar
    38     8     2   ar
    39    19    15   ar
    40    13    14    1
@<TRIPOS>MOLECULE
*****
 36 40 0 0 0
SMALL
GASTEIGER

@<TRIPOS>ATOM
      1 O          56.8328   92.2541   -1.6904 O.3     1  UNL1       -0.4511
      2 C          58.1329   92.7352   -1.1175 C.ar    1  UNL1        0.1748
      3 C          58.2798   92.9115    0.3649 C.ar    1  UNL1        0.0708
      4 C          59.5799   93.3926    0.9378 C.ar    1  UNL1        0.1621
      5 F          59.7268   93.5689    2.4201 F       1  UNL1       -0.2026
      6 C          60.7332   93.6974    0.0283 C.ar    1  UNL1        0.1549
      7 C          60.5862   93.5212   -1.4541 C.ar    1  UNL1        0.0553
      8 C          59.2861   93.0400   -2.0269 C.ar    1  UNL1        0.1759
      9 F          59.1392   92.8637   -3.5093 F       1  UNL1       -0.2009
     10 S          62.0333   94.1786    0.6011 S.O2    1  UNL1        0.0769
     11 O          61.5123   95.5852    0.6022 O.2     1  UNL1       -0.1498
     12 O          62.5543   92.7720    0.6000 O.2     1  UNL1       -0.1498
     13 N          63.3334   94.6597    1.1740 N.pl3   1  UNL1       -0.1984
     14 H          63.5449   94.4949    2.1213 H       1  UNL1        0.1753
     15 C          64.3113   95.3919    0.3035 C.ar    1  UNL1        0.1542
     16 C          65.3821   96.3300    0.7762 C.ar    1  UNL1        0.0725
     17 S          66.1227   96.8324   -0.4276 S.2     1  UNL1       -0.0625
     18 C          65.5095   96.2049   -1.6443 C.ar    1  UNL1        0.1360
     19 N          64.3901   95.3146   -1.1924 N.ar    1  UNL1       -0.2203
     20 C          55.9457   93.7531   -3.6181 C.ar    1  UNL1        0.0527
     21 C          55.6471   93.9555   -5.0741 C.ar    1  UNL1        0.0159
     22 C          55.9369   92.8613   -6.0583 C.ar    1  UNL1        0.0579
     23 CL         55.6383   93.0637   -7.5143 Cl      1  UNL1       -0.0822
     24 C          56.5253   91.5647   -5.5865 C.ar    1  UNL1        0.0145
     25 C          56.8240   91.3623   -4.1306 C.ar    1  UNL1        0.0384
     26 C          56.5341   92.4564   -3.1464 C.ar    1  UNL1        0.1468
     27 N          56.5659   95.9898   -2.2923 N.ar    1  UNL1       -0.2499
     28 N          55.8777   96.8397   -1.2657 N.ar    1  UNL1       -0.1677
     29 C          54.5423   96.2225   -0.9727 C.ar    1  UNL1        0.1217
     30 C          54.4052   94.9911   -1.8183 C.ar    1  UNL1        0.0413
     31 C          55.6559   94.8473   -2.6338 C.ar    1  UNL1        0.0824
     32 C          61.2077   96.8396   -4.2821 C.3     1  UNL1        0.0897
     33 N          59.8482   96.5907   -3.6993 N.3     1  UNL1       -0.2681
     34 C          58.5489   96.0590   -4.2275 C.3     1  UNL1        0.0982
     35 C          57.9254   96.2387   -2.8752 C.3     1  UNL1        0.1369
     36 C          59.2248   96.7704   -2.3469 C.3     1  UNL1        0.0982
@<TRIPOS>BOND
     1    32    33    1
     2    33    34    1
     3    34    35    1
     4    35    27    1
     5    27    28   ar
     6    28    29   ar
     7    29    30   ar
     8    30    31   ar
     9    31    20    1
    10    20    21   ar
    11    21    22   ar
    12    22    23    1
    13    22    24   ar
    14    24    25   ar
    15    25    26   ar
    16    26     1    1
    17     1     2    1
    18     2     3   ar
    19     3     4   ar
    20     4     5    1
    21     4     6   ar
    22     6    10    1
    23    10    11    2
    24    10    12    2
    25    10    13    1
    26    13    15    1
    27    15    16   ar
    28    16    17   ar
    29    17    18   ar
    30    18    19   ar
    31     6     7   ar
    32     7     8   ar
    33     8     9    1
    34    35    36    1
    35    36    33    1
    36    31    27   ar
    37    26    20   ar
    38     8     2   ar
    39    19    15   ar
    40    13    14    1
@<TRIPOS>MOLECULE
*****
 36 40 0 0 0
SMALL
GASTEIGER

@<TRIPOS>ATOM
      1 O          63.7861   87.7981   13.8456 O.3     1  UNL1       -0.4511
      2 C          63.5871   86.3135   13.7662 C.ar    1  UNL1        0.1748
      3 C          63.1439   85.6840   12.4788 C.ar    1  UNL1        0.0708
      4 C          62.9450   84.1993   12.3994 C.ar    1  UNL1        0.1621
      5 F          62.5018   83.5698   11.1121 F       1  UNL1       -0.2026
      6 C          63.1893   83.3442   13.6074 C.ar    1  UNL1        0.1549
      7 C          63.6324   83.9737   14.8947 C.ar    1  UNL1        0.0553
      8 C          63.8314   85.4584   14.9741 C.ar    1  UNL1        0.1759
      9 F          64.2746   86.0879   16.2615 F       1  UNL1       -0.2009
     10 S          62.9903   81.8596   13.5280 S.O2    1  UNL1        0.0769
     11 O          64.3844   81.7012   12.9975 O.2     1  UNL1       -0.1498
     12 O          61.5962   82.0180   14.0585 O.2     1  UNL1       -0.1498
     13 N          62.7914   80.3750   13.4485 N.pl3   1  UNL1       -0.1984
     14 H          62.6778   79.8487   14.2728 H       1  UNL1        0.1753
     15 C          62.7656   79.6921   12.1132 C.ar    1  UNL1        0.1542
     16 C          62.9116   80.3604   10.7782 C.ar    1  UNL1        0.0725
     17 S          62.8255   79.3024    9.7183 S.2     1  UNL1       -0.0625
     18 C          62.6262   77.9803   10.3983 C.ar    1  UNL1        0.1360
     19 N          62.5891   78.2211   11.8784 N.ar    1  UNL1       -0.2203
     20 C          63.5595   90.1581   12.7829 C.ar    1  UNL1        0.0527
     21 C          63.1700   91.0299   11.6262 C.ar    1  UNL1        0.0159
     22 C          62.6175   90.4136   10.3753 C.ar    1  UNL1        0.0579
     23 CL         62.2279   91.2855    9.2184 Cl      1  UNL1       -0.0822
     24 C          62.4545   88.9255   10.2811 C.ar    1  UNL1        0.0145
     25 C          62.8440   88.0536   11.4379 C.ar    1  UNL1        0.0384
     26 C          63.3965   88.6699   12.6888 C.ar    1  UNL1        0.1468
     27 N          65.2297   91.7723   14.1059 N.ar    1  UNL1       -0.2499
     28 N          65.4524   92.1157   15.5490 N.ar    1  UNL1       -0.1677
     29 C          64.4724   91.3299   16.3689 C.ar    1  UNL1        0.1217
     30 C          63.6441   90.5009   15.4326 C.ar    1  UNL1        0.0413
     31 C          64.1121   90.7744   14.0340 C.ar    1  UNL1        0.0824
     32 C          67.8287   93.6735   10.1237 C.3     1  UNL1        0.0897
     33 N          67.0675   93.1167   11.2900 N.3     1  UNL1       -0.2681
     34 C          65.6887   93.3120   11.8474 C.3     1  UNL1        0.0982
     35 C          65.9909   92.3292   12.9395 C.3     1  UNL1        0.1369
     36 C          67.3698   92.1339   12.3821 C.3     1  UNL1        0.0982
@<TRIPOS>BOND
     1    32    33    1
     2    33    34    1
     3    34    35    1
     4    35    27    1
     5    27    28   ar
     6    28    29   ar
     7    29    30   ar
     8    30    31   ar
     9    31    20    1
    10    20    21   ar
    11    21    22   ar
    12    22    23    1
    13    22    24   ar
    14    24    25   ar
    15    25    26   ar
    16    26     1    1
    17     1     2    1
    18     2     3   ar
    19     3     4   ar
    20     4     5    1
    21     4     6   ar
    22     6    10    1
    23    10    11    2
    24    10    12    2
    25    10    13    1
    26    13    15    1
    27    15    16   ar
    28    16    17   ar
    29    17    18   ar
    30    18    19   ar
    31     6     7   ar
    32     7     8   ar
    33     8     9    1
    34    35    36    1
    35    36    33    1
    36    31    27   ar
    37    26    20   ar
    38     8     2   ar
    39    19    15   ar
    40    13    14    1
@<TRIPOS>MOLECULE
*****
 36 40 0 0 0
SMALL
GASTEIGER

@<TRIPOS>ATOM
      1 O          63.1133   86.8268   12.5316 O.3     1  UNL1       -0.4511
      2 C          63.6845   88.1182   13.0375 C.ar    1  UNL1        0.1748
      3 C          63.4837   89.3837   12.2575 C.ar    1  UNL1        0.0708
      4 C          64.0549   90.6751   12.7633 C.ar    1  UNL1        0.1621
      5 F          63.8541   91.9406   11.9834 F       1  UNL1       -0.2026
      6 C          64.8271   90.7011   14.0491 C.ar    1  UNL1        0.1549
      7 C          65.0279   89.4356   14.8290 C.ar    1  UNL1        0.0553
      8 C          64.4566   88.1442   14.3232 C.ar    1  UNL1        0.1759
      9 F          64.6575   86.8787   15.1031 F       1  UNL1       -0.2009
     10 S          65.3984   91.9925   14.5550 S.O2    1  UNL1        0.0769
     11 O          64.4383   91.9659   15.7071 O.2     1  UNL1       -0.1498
     12 O          66.3584   92.0191   13.4028 O.2     1  UNL1       -0.1498
     13 N          65.9696   93.2839   15.0608 N.pl3   1  UNL1       -0.1984
     14 H          65.4075   94.0915   15.0935 H       1  UNL1        0.1753
     15 C          67.3974   93.3449   15.5167 C.ar    1  UNL1        0.1542
     16 C          68.2460   92.1743   15.9164 C.ar    1  UNL1        0.0725
     17 S          69.6003   92.6930   16.2997 S.2     1  UNL1       -0.0625
     18 C          69.5886   94.1842   16.1370 C.ar    1  UNL1        0.1360
     19 N          68.2272   94.5870   15.6531 N.ar    1  UNL1       -0.2203
     20 C          62.0163   85.7132   10.4564 C.ar    1  UNL1        0.0527
     21 C          60.9814   85.7251    9.3707 C.ar    1  UNL1        0.0159
     22 C          60.0084   86.8626    9.2746 C.ar    1  UNL1        0.0579
     23 CL         58.9734   86.8746    8.1889 Cl      1  UNL1       -0.0822
     24 C          60.0704   87.9882   10.2641 C.ar    1  UNL1        0.0145
     25 C          61.1053   87.9763   11.3498 C.ar    1  UNL1        0.0384
     26 C          62.0783   86.8388   11.4459 C.ar    1  UNL1        0.1468
     27 N          63.4508   83.9146   11.8176 N.ar    1  UNL1       -0.2499
     28 N          64.4184   82.8298   11.4475 N.ar    1  UNL1       -0.1677
     29 C          64.5550   82.8204    9.9537 C.ar    1  UNL1        0.1217
     30 C          63.6718   83.8993    9.4007 C.ar    1  UNL1        0.0413
     31 C          62.9893   84.5756   10.5526 C.ar    1  UNL1        0.0824
     32 C          61.9807   85.1455   16.5664 C.3     1  UNL1        0.0897
     33 N          62.4113   84.7850   15.1755 N.3     1  UNL1       -0.2681
     34 C          61.7011   84.5055   13.8843 C.3     1  UNL1        0.0982
     35 C          63.0202   84.2751   13.2085 C.3     1  UNL1        0.1369
     36 C          63.7305   84.5546   14.4998 C.3     1  UNL1        0.0982
@<TRIPOS>BOND
     1    32    33    1
     2    33    34    1
     3    34    35    1
     4    35    27    1
     5    27    28   ar
     6    28    29   ar
     7    29    30   ar
     8    30    31   ar
     9    31    20    1
    10    20    21   ar
    11    21    22   ar
    12    22    23    1
    13    22    24   ar
    14    24    25   ar
    15    25    26   ar
    16    26     1    1
    17     1     2    1
    18     2     3   ar
    19     3     4   ar
    20     4     5    1
    21     4     6   ar
    22     6    10    1
    23    10    11    2
    24    10    12    2
    25    10    13    1
    26    13    15    1
    27    15    16   ar
    28    16    17   ar
    29    17    18   ar
    30    18    19   ar
    31     6     7   ar
    32     7     8   ar
    33     8     9    1
    34    35    36    1
    35    36    33    1
    36    31    27   ar
    37    26    20   ar
    38     8     2   ar
    39    19    15   ar
    40    13    14    1
