@<TRIPOS>MOLECULE
*****
 24 26 0 0 0
SMALL
GASTEIGER

@<TRIPOS>ATOM
      1 C          63.8232   89.4099   15.1217 C.2     1  UNL1        0.2309
      2 O          62.4888   89.2155   15.7787 O.2     1  UNL1       -0.2744
      3 N          64.6272   88.2194   14.6899 N.am    1  UNL1       -0.2787
      4 H          65.5030   88.3471   14.2588 H       1  UNL1        0.1553
      5 C          64.0968   86.8346   14.9151 C.ar    1  UNL1        0.0808
      6 C          63.9615   85.7623   13.8749 C.ar    1  UNL1        0.0234
      7 C          63.3897   84.5438   14.5369 C.ar    1  UNL1        0.0260
      8 C          63.1715   84.8630   15.9863 C.ar    1  UNL1        0.0382
      9 S          63.6086   86.2787   16.2200 S.2     1  UNL1       -0.0716
     10 C          63.0888   83.2358   13.8672 C.ar    1  UNL1        0.0851
     11 C          63.4273   83.0393   12.4192 C.ar    1  UNL1        0.0398
     12 C          63.1264   81.7313   11.7494 C.ar    1  UNL1        0.1022
     13 N          62.4869   80.6198   12.5277 N.ar    1  UNL1       -0.2224
     14 C          62.1484   80.8163   13.9757 C.ar    1  UNL1        0.1989
     15 N          62.4493   82.1243   14.6455 N.ar    1  UNL1       -0.2239
     16 C          64.3536   90.7948   14.8965 C.3     1  UNL1        0.1118
     17 C          65.7733   92.8488   11.8118 C.ar    1  UNL1        0.1384
     18 C          64.8947   92.3434   10.7062 C.ar    1  UNL1        0.0369
     19 C          63.8357   91.3217   10.9973 C.ar    1  UNL1        0.0028
     20 C          63.6553   90.8055   12.3941 C.ar    1  UNL1       -0.0036
     21 C          64.5340   91.3110   13.4997 C.ar    1  UNL1       -0.0101
     22 C          65.5930   92.3327   13.2086 C.ar    1  UNL1        0.0331
     23 C          66.4418   95.2646   11.1283 C.3     1  UNL1        0.2525
     24 O          66.8323   93.8705   11.5207 O.3     1  UNL1       -0.4714
@<TRIPOS>BOND
     1    23    24    1
     2    24    17    1
     3    17    18   ar
     4    18    19   ar
     5    19    20   ar
     6    20    21   ar
     7    21    16    1
     8    16     1    1
     9     1     2    2
    10     1     3   am
    11     3     5    1
    12     5     6   ar
    13     6     7   ar
    14     7    10    1
    15    10    11   ar
    16    11    12   ar
    17    12    13   ar
    18    13    14   ar
    19    14    15   ar
    20     7     8   ar
    21     8     9   ar
    22    21    22   ar
    23    22    17   ar
    24     9     5   ar
    25    15    10   ar
    26     3     4    1
@<TRIPOS>MOLECULE
*****
 24 26 0 0 0
SMALL
GASTEIGER

@<TRIPOS>ATOM
      1 C          63.8044   89.4451   15.1694 C.2     1  UNL1        0.2309
      2 O          62.4570   89.2445   15.7974 O.2     1  UNL1       -0.2744
      3 N          64.6178   88.2586   14.7444 N.am    1  UNL1       -0.2787
      4 H          65.5021   88.3902   14.3321 H       1  UNL1        0.1553
      5 C          64.0840   86.8716   14.9474 C.ar    1  UNL1        0.0808
      6 C          63.9665   85.8093   13.8950 C.ar    1  UNL1        0.0234
      7 C          63.3838   84.5845   14.5357 C.ar    1  UNL1        0.0260
      8 C          63.1410   84.8900   15.9841 C.ar    1  UNL1        0.0382
      9 S          63.5737   86.3035   16.2385 S.2     1  UNL1       -0.0716
     10 C          63.0945   83.2829   13.8486 C.ar    1  UNL1        0.0851
     11 C          63.3894   83.1249   12.3864 C.ar    1  UNL1        0.0398
     12 C          63.1002   81.8233   11.6993 C.ar    1  UNL1        0.1022
     13 N          62.5161   80.6796   12.4745 N.ar    1  UNL1       -0.2224
     14 C          62.2212   80.8376   13.9367 C.ar    1  UNL1        0.1989
     15 N          62.5104   82.1392   14.6238 N.ar    1  UNL1       -0.2239
     16 C          64.3382   90.8320   14.9663 C.3     1  UNL1        0.1118
     17 C          63.8901   91.5015   11.0803 C.ar    1  UNL1        0.1384
     18 C          65.0814   92.3697   10.8030 C.ar    1  UNL1        0.0369
     19 C          66.0251   92.7253   11.9135 C.ar    1  UNL1        0.0028
     20 C          65.7774   92.2128   13.3012 C.ar    1  UNL1       -0.0036
     21 C          64.5860   91.3446   13.5785 C.ar    1  UNL1       -0.0101
     22 C          63.6424   90.9890   12.4681 C.ar    1  UNL1        0.0331
     23 C          62.0636   89.9396   10.0933 C.3     1  UNL1        0.2525
     24 O          62.9465   91.1459    9.9699 O.3     1  UNL1       -0.4714
@<TRIPOS>BOND
     1    23    24    1
     2    24    17    1
     3    17    18   ar
     4    18    19   ar
     5    19    20   ar
     6    20    21   ar
     7    21    16    1
     8    16     1    1
     9     1     2    2
    10     1     3   am
    11     3     5    1
    12     5     6   ar
    13     6     7   ar
    14     7    10    1
    15    10    11   ar
    16    11    12   ar
    17    12    13   ar
    18    13    14   ar
    19    14    15   ar
    20     7     8   ar
    21     8     9   ar
    22    21    22   ar
    23    22    17   ar
    24     9     5   ar
    25    15    10   ar
    26     3     4    1
@<TRIPOS>MOLECULE
*****
 24 26 0 0 0
SMALL
GASTEIGER

@<TRIPOS>ATOM
      1 C          63.6035   89.1592   15.4895 C.2     1  UNL1        0.2309
      2 O          62.6091   88.5969   16.4615 O.2     1  UNL1       -0.2744
      3 N          64.3593   88.2416   14.5746 N.am    1  UNL1       -0.2787
      4 H          65.0120   88.6106   13.9366 H       1  UNL1        0.1553
      5 C          64.1206   86.7618   14.6318 C.ar    1  UNL1        0.0808
      6 C          63.8686   85.8634   13.4575 C.ar    1  UNL1        0.0234
      7 C          63.6842   84.4670   13.9733 C.ar    1  UNL1        0.0260
      8 C          63.8223   84.5024   15.4665 C.ar    1  UNL1        0.0382
      9 S          64.0920   85.9207   15.8735 S.2     1  UNL1       -0.0716
     10 C          63.4099   83.2490   13.1419 C.ar    1  UNL1        0.0851
     11 C          63.8794   83.1912   11.7184 C.ar    1  UNL1        0.0398
     12 C          63.6052   81.9733   10.8870 C.ar    1  UNL1        0.1022
     13 N          62.8613   80.8129   11.4791 N.ar    1  UNL1       -0.2224
     14 C          62.3918   80.8707   12.9025 C.ar    1  UNL1        0.1989
     15 N          62.6661   82.0887   13.7339 N.ar    1  UNL1       -0.2239
     16 C          63.8422   90.6389   15.4322 C.3     1  UNL1        0.1118
     17 C          67.0545   92.1191   13.6321 C.ar    1  UNL1        0.1384
     18 C          66.5185   92.3650   12.2529 C.ar    1  UNL1        0.0369
     19 C          65.0905   92.0355   11.9334 C.ar    1  UNL1        0.0028
     20 C          64.1984   91.4601   12.9932 C.ar    1  UNL1       -0.0036
     21 C          64.7343   91.2143   14.3724 C.ar    1  UNL1       -0.0101
     22 C          66.1624   91.5438   14.6918 C.ar    1  UNL1        0.0331
     23 C          68.8693   92.8315   15.3493 C.3     1  UNL1        0.2525
     24 O          68.4826   92.4486   13.9516 O.3     1  UNL1       -0.4714
@<TRIPOS>BOND
     1    23    24    1
     2    24    17    1
     3    17    18   ar
     4    18    19   ar
     5    19    20   ar
     6    20    21   ar
     7    21    16    1
     8    16     1    1
     9     1     2    2
    10     1     3   am
    11     3     5    1
    12     5     6   ar
    13     6     7   ar
    14     7    10    1
    15    10    11   ar
    16    11    12   ar
    17    12    13   ar
    18    13    14   ar
    19    14    15   ar
    20     7     8   ar
    21     8     9   ar
    22    21    22   ar
    23    22    17   ar
    24     9     5   ar
    25    15    10   ar
    26     3     4    1
@<TRIPOS>MOLECULE
*****
 24 26 0 0 0
SMALL
GASTEIGER

@<TRIPOS>ATOM
      1 C          61.8883   88.5372   11.4968 C.2     1  UNL1        0.2309
      2 O          63.1081   87.8823   12.0742 O.2     1  UNL1       -0.2744
      3 N          61.8888   90.0113   11.2193 N.am    1  UNL1       -0.2787
      4 H          61.0882   90.4411   10.8403 H       1  UNL1        0.1553
      5 C          63.1090   90.8306   11.5191 C.ar    1  UNL1        0.0808
      6 C          63.9315   91.5862   10.5179 C.ar    1  UNL1        0.0234
      7 C          65.0518   92.2607   11.2528 C.ar    1  UNL1        0.0260
      8 C          64.9216   91.9218   12.7083 C.ar    1  UNL1        0.0382
      9 S          63.7209   91.0380   12.8728 S.2     1  UNL1       -0.0716
     10 C          66.1154   93.1226   10.6399 C.ar    1  UNL1        0.0851
     11 C          67.3388   92.4932   10.0422 C.ar    1  UNL1        0.0398
     12 C          68.4024   93.3550    9.4293 C.ar    1  UNL1        0.1022
     13 N          68.2428   94.8465    9.4141 N.ar    1  UNL1       -0.2224
     14 C          67.0195   95.4760   10.0118 C.ar    1  UNL1        0.1989
     15 N          65.9558   94.6140   10.6247 N.ar    1  UNL1       -0.2239
     16 C          60.6681   87.7180   11.1969 C.3     1  UNL1        0.1118
     17 C          61.4239   85.6555    7.8916 C.ar    1  UNL1        0.1384
     18 C          60.1477   85.8618    7.1308 C.ar    1  UNL1        0.0369
     19 C          59.0450   86.6867    7.7253 C.ar    1  UNL1        0.0028
     20 C          59.2185   87.3055    9.0807 C.ar    1  UNL1       -0.0036
     21 C          60.4946   87.0992    9.8415 C.ar    1  UNL1       -0.0101
     22 C          61.5973   86.2742    9.2470 C.ar    1  UNL1        0.0331
     23 C          62.4393   84.3792    5.8693 C.3     1  UNL1        0.2525
     24 O          62.5266   84.8305    7.2971 O.3     1  UNL1       -0.4714
@<TRIPOS>BOND
     1    23    24    1
     2    24    17    1
     3    17    18   ar
     4    18    19   ar
     5    19    20   ar
     6    20    21   ar
     7    21    16    1
     8    16     1    1
     9     1     2    2
    10     1     3   am
    11     3     5    1
    12     5     6   ar
    13     6     7   ar
    14     7    10    1
    15    10    11   ar
    16    11    12   ar
    17    12    13   ar
    18    13    14   ar
    19    14    15   ar
    20     7     8   ar
    21     8     9   ar
    22    21    22   ar
    23    22    17   ar
    24     9     5   ar
    25    15    10   ar
    26     3     4    1
@<TRIPOS>MOLECULE
*****
 24 26 0 0 0
SMALL
GASTEIGER

@<TRIPOS>ATOM
      1 C          64.4014   85.5077   15.3295 C.2     1  UNL1        0.2309
      2 O          65.7346   86.0408   14.8955 O.2     1  UNL1       -0.2744
      3 N          63.3077   86.4549   15.7256 N.am    1  UNL1       -0.2787
      4 H          62.4327   86.1050   16.0104 H       1  UNL1        0.1553
      5 C          63.5473   87.9351   15.6876 C.ar    1  UNL1        0.0808
      6 C          64.2744   88.6832   14.6098 C.ar    1  UNL1        0.0234
      7 C          64.2784   90.1376   14.9768 C.ar    1  UNL1        0.0260
      8 C          63.5537   90.2884   16.2815 C.ar    1  UNL1        0.0382
      9 S          63.1019   88.9272   16.7208 S.2     1  UNL1       -0.0716
     10 C          64.8982   91.2465   14.1792 C.ar    1  UNL1        0.0851
     11 C          64.6555   91.3339   12.7016 C.ar    1  UNL1        0.0398
     12 C          65.2753   92.4427   11.9040 C.ar    1  UNL1        0.1022
     13 N          66.1378   93.4644   12.5840 N.ar    1  UNL1       -0.2224
     14 C          66.3804   93.3771   14.0617 C.ar    1  UNL1        0.1989
     15 N          65.7606   92.2681   14.8593 N.ar    1  UNL1       -0.2239
     16 C          64.1618   84.0275   15.3675 C.3     1  UNL1        0.1118
     17 C          63.7509   83.0014   11.5559 C.ar    1  UNL1        0.1384
     18 C          62.7620   81.8792   11.6695 C.ar    1  UNL1        0.0369
     19 C          62.2398   81.4731   13.0157 C.ar    1  UNL1        0.0028
     20 C          62.7064   82.1892   14.2484 C.ar    1  UNL1       -0.0036
     21 C          63.6952   83.3113   14.1348 C.ar    1  UNL1       -0.0101
     22 C          64.2174   83.7174   12.7886 C.ar    1  UNL1        0.0331
     23 C          63.4529   84.2984    9.3246 C.3     1  UNL1        0.2525
     24 O          64.2731   83.4075   10.2097 O.3     1  UNL1       -0.4714
@<TRIPOS>BOND
     1    23    24    1
     2    24    17    1
     3    17    18   ar
     4    18    19   ar
     5    19    20   ar
     6    20    21   ar
     7    21    16    1
     8    16     1    1
     9     1     2    2
    10     1     3   am
    11     3     5    1
    12     5     6   ar
    13     6     7   ar
    14     7    10    1
    15    10    11   ar
    16    11    12   ar
    17    12    13   ar
    18    13    14   ar
    19    14    15   ar
    20     7     8   ar
    21     8     9   ar
    22    21    22   ar
    23    22    17   ar
    24     9     5   ar
    25    15    10   ar
    26     3     4    1
@<TRIPOS>MOLECULE
*****
 24 26 0 0 0
SMALL
GASTEIGER

@<TRIPOS>ATOM
      1 C          62.4494   89.5939   11.1789 C.2     1  UNL1        0.2309
      2 O          62.4371   90.6031   10.0693 O.2     1  UNL1       -0.2744
      3 N          63.3720   89.7753   12.3477 N.am    1  UNL1       -0.2787
      4 H          63.3800   89.1129   13.0759 H       1  UNL1        0.1553
      5 C          64.2823   90.9659   12.4068 C.ar    1  UNL1        0.0808
      6 C          64.6527   91.8507   11.2536 C.ar    1  UNL1        0.0234
      7 C          65.5814   92.9125   11.7635 C.ar    1  UNL1        0.0260
      8 C          65.7851   92.6839   13.2320 C.ar    1  UNL1        0.0382
      9 S          64.9822   91.4809   13.6295 S.2     1  UNL1       -0.0716
     10 C          66.1982   94.0102   10.9482 C.ar    1  UNL1        0.0851
     11 C          66.9800   93.6776    9.7120 C.ar    1  UNL1        0.0398
     12 C          67.5968   94.7751    8.8967 C.ar    1  UNL1        0.1022
     13 N          67.4318   96.2055    9.3176 N.ar    1  UNL1       -0.2224
     14 C          66.6500   96.5381   10.5537 C.ar    1  UNL1        0.1989
     15 N          66.0332   95.4404   11.3691 N.ar    1  UNL1       -0.2239
     16 C          61.5390   88.4032   11.1198 C.3     1  UNL1        0.1118
     17 C          62.8137   84.6463   11.0137 C.ar    1  UNL1        0.1384
     18 C          63.0708   84.4756    9.5458 C.ar    1  UNL1        0.0369
     19 C          62.8173   85.6140    8.6026 C.ar    1  UNL1        0.0028
     20 C          62.3067   86.9232    9.1272 C.ar    1  UNL1       -0.0036
     21 C          62.0496   87.0940   10.5951 C.ar    1  UNL1       -0.0101
     22 C          62.3031   85.9555   11.5383 C.ar    1  UNL1        0.0331
     23 C          64.3233   82.6974   11.8338 C.3     1  UNL1        0.2525
     24 O          63.0672   83.5079   11.9570 O.3     1  UNL1       -0.4714
@<TRIPOS>BOND
     1    23    24    1
     2    24    17    1
     3    17    18   ar
     4    18    19   ar
     5    19    20   ar
     6    20    21   ar
     7    21    16    1
     8    16     1    1
     9     1     2    2
    10     1     3   am
    11     3     5    1
    12     5     6   ar
    13     6     7   ar
    14     7    10    1
    15    10    11   ar
    16    11    12   ar
    17    12    13   ar
    18    13    14   ar
    19    14    15   ar
    20     7     8   ar
    21     8     9   ar
    22    21    22   ar
    23    22    17   ar
    24     9     5   ar
    25    15    10   ar
    26     3     4    1
@<TRIPOS>MOLECULE
*****
 24 26 0 0 0
SMALL
GASTEIGER

@<TRIPOS>ATOM
      1 C          62.1377   86.7416   10.6107 C.2     1  UNL1        0.2309
      2 O          62.7384   87.0815    9.2789 O.2     1  UNL1       -0.2744
      3 N          62.0728   87.7800   11.6912 N.am    1  UNL1       -0.2787
      4 H          61.6785   87.5569   12.5653 H       1  UNL1        0.1553
      5 C          62.6086   89.1583   11.4400 C.ar    1  UNL1        0.0808
      6 C          63.6513   89.8615   12.2574 C.ar    1  UNL1        0.0234
      7 C          63.8829   91.2132   11.6499 C.ar    1  UNL1        0.0260
      8 C          62.9833   91.3455   10.4568 C.ar    1  UNL1        0.0382
      9 S          62.1958   90.0755   10.3271 S.2     1  UNL1       -0.0716
     10 C          64.8451   92.2506   12.1479 C.ar    1  UNL1        0.0851
     11 C          65.3998   93.2745   11.2024 C.ar    1  UNL1        0.0398
     12 C          66.3620   94.3118   11.7003 C.ar    1  UNL1        0.1022
     13 N          66.7696   94.3253   13.1439 N.ar    1  UNL1       -0.2224
     14 C          66.2149   93.3014   14.0893 C.ar    1  UNL1        0.1989
     15 N          65.2527   92.2641   13.5913 N.ar    1  UNL1       -0.2239
     16 C          61.6019   85.3633   10.8619 C.3     1  UNL1        0.1118
     17 C          63.3374   82.2935   12.6826 C.ar    1  UNL1        0.1384
     18 C          64.4320   81.9690   11.7098 C.ar    1  UNL1        0.0369
     19 C          64.5833   82.7758   10.4544 C.ar    1  UNL1        0.0028
     20 C          63.6400   83.9073   10.1718 C.ar    1  UNL1       -0.0036
     21 C          62.5453   84.2318   11.1445 C.ar    1  UNL1       -0.0101
     22 C          62.3940   83.4249   12.3999 C.ar    1  UNL1        0.0331
     23 C          61.8369   80.9670   14.3375 C.3     1  UNL1        0.2525
     24 O          63.1861   81.4867   13.9380 O.3     1  UNL1       -0.4714
@<TRIPOS>BOND
     1    23    24    1
     2    24    17    1
     3    17    18   ar
     4    18    19   ar
     5    19    20   ar
     6    20    21   ar
     7    21    16    1
     8    16     1    1
     9     1     2    2
    10     1     3   am
    11     3     5    1
    12     5     6   ar
    13     6     7   ar
    14     7    10    1
    15    10    11   ar
    16    11    12   ar
    17    12    13   ar
    18    13    14   ar
    19    14    15   ar
    20     7     8   ar
    21     8     9   ar
    22    21    22   ar
    23    22    17   ar
    24     9     5   ar
    25    15    10   ar
    26     3     4    1
@<TRIPOS>MOLECULE
*****
 24 26 0 0 0
SMALL
GASTEIGER

@<TRIPOS>ATOM
      1 C          61.9873   89.0329   11.5423 C.2     1  UNL1        0.2309
      2 O          63.1126   88.2455   12.1452 O.2     1  UNL1       -0.2744
      3 N          62.1661   90.4933   11.2497 N.am    1  UNL1       -0.2787
      4 H          61.4275   91.0101   10.8540 H       1  UNL1        0.1553
      5 C          63.4703   91.1661   11.5601 C.ar    1  UNL1        0.0808
      6 C          64.1636   91.1742   12.8902 C.ar    1  UNL1        0.0234
      7 C          65.4320   91.9621   12.7470 C.ar    1  UNL1        0.0260
      8 C          65.5226   92.4408   11.3283 C.ar    1  UNL1        0.0382
      9 S          64.3102   91.9489   10.5948 S.2     1  UNL1       -0.0716
     10 C          66.4338   92.2250   13.8320 C.ar    1  UNL1        0.0851
     11 C          65.9694   92.4918   15.2331 C.ar    1  UNL1        0.0398
     12 C          66.9711   92.7547   16.3181 C.ar    1  UNL1        0.1022
     13 N          68.4376   92.7509   16.0020 N.ar    1  UNL1       -0.2224
     14 C          68.9020   92.4841   14.6008 C.ar    1  UNL1        0.1989
     15 N          67.9001   92.2212   13.5159 N.ar    1  UNL1       -0.2239
     16 C          60.6831   88.3601   11.2320 C.3     1  UNL1        0.1118
     17 C          61.5006   85.9265    8.2056 C.ar    1  UNL1        0.1384
     18 C          60.2187   85.9979    7.4301 C.ar    1  UNL1        0.0369
     19 C          59.0915   86.8568    7.9219 C.ar    1  UNL1        0.0028
     20 C          59.2463   87.6442    9.1891 C.ar    1  UNL1       -0.0036
     21 C          60.5282   87.5727    9.9646 C.ar    1  UNL1       -0.0101
     22 C          61.6554   86.7138    9.4728 C.ar    1  UNL1        0.0331
     23 C          62.5654   84.4604    6.3437 C.3     1  UNL1        0.2525
     24 O          62.6278   85.0676    7.7138 O.3     1  UNL1       -0.4714
@<TRIPOS>BOND
     1    23    24    1
     2    24    17    1
     3    17    18   ar
     4    18    19   ar
     5    19    20   ar
     6    20    21   ar
     7    21    16    1
     8    16     1    1
     9     1     2    2
    10     1     3   am
    11     3     5    1
    12     5     6   ar
    13     6     7   ar
    14     7    10    1
    15    10    11   ar
    16    11    12   ar
    17    12    13   ar
    18    13    14   ar
    19    14    15   ar
    20     7     8   ar
    21     8     9   ar
    22    21    22   ar
    23    22    17   ar
    24     9     5   ar
    25    15    10   ar
    26     3     4    1
@<TRIPOS>MOLECULE
*****
 24 26 0 0 0
SMALL
GASTEIGER

@<TRIPOS>ATOM
      1 C          63.2385   89.1520   12.5672 C.2     1  UNL1        0.2309
      2 O          63.8933   88.2565   13.5769 O.2     1  UNL1       -0.2744
      3 N          62.5235   88.5580   11.3899 N.am    1  UNL1       -0.2787
      4 H          62.0937   89.1458   10.7272 H       1  UNL1        0.1553
      5 C          62.4633   87.0687   11.2222 C.ar    1  UNL1        0.0808
      6 C          62.7132   86.0499   12.2944 C.ar    1  UNL1        0.0234
      7 C          62.5470   84.6882   11.6878 C.ar    1  UNL1        0.0260
      8 C          62.1945   84.8653   10.2405 C.ar    1  UNL1        0.0382
      9 S          62.1428   86.3366    9.9528 S.2     1  UNL1       -0.0716
     10 C          62.7056   83.3791   12.4028 C.ar    1  UNL1        0.0851
     11 C          62.7543   82.0992   11.6221 C.ar    1  UNL1        0.0398
     12 C          62.9129   80.7902   12.3370 C.ar    1  UNL1        0.1022
     13 N          63.0227   80.7610   13.8328 N.ar    1  UNL1       -0.2224
     14 C          62.9740   82.0409   14.6134 C.ar    1  UNL1        0.1989
     15 N          62.8154   83.3499   13.8984 N.ar    1  UNL1       -0.2239
     16 C          63.2986   90.6413   12.7349 C.3     1  UNL1        0.1118
     17 C          66.4778   93.0057   12.5049 C.ar    1  UNL1        0.1384
     18 C          67.1994   92.6338   13.7662 C.ar    1  UNL1        0.0369
     19 C          66.6208   91.5978   14.6838 C.ar    1  UNL1        0.0028
     20 C          65.3206   90.9337   14.3400 C.ar    1  UNL1       -0.0036
     21 C          64.5989   91.3055   13.0787 C.ar    1  UNL1       -0.0101
     22 C          65.1775   92.3415   12.1611 C.ar    1  UNL1        0.0331
     23 C          66.1500   94.9927   10.8634 C.3     1  UNL1        0.2525
     24 O          67.0564   94.0417   11.5873 O.3     1  UNL1       -0.4714
@<TRIPOS>BOND
     1    23    24    1
     2    24    17    1
     3    17    18   ar
     4    18    19   ar
     5    19    20   ar
     6    20    21   ar
     7    21    16    1
     8    16     1    1
     9     1     2    2
    10     1     3   am
    11     3     5    1
    12     5     6   ar
    13     6     7   ar
    14     7    10    1
    15    10    11   ar
    16    11    12   ar
    17    12    13   ar
    18    13    14   ar
    19    14    15   ar
    20     7     8   ar
    21     8     9   ar
    22    21    22   ar
    23    22    17   ar
    24     9     5   ar
    25    15    10   ar
    26     3     4    1
