@<TRIPOS>MOLECULE
*****
 17 19 0 0 0
SMALL
GASTEIGER

@<TRIPOS>ATOM
      1 C          62.5826   90.1717   11.3661 C.3     1  UNL1        0.0896
      2 N          61.7886   89.2994   10.4396 N.3     1  UNL1       -0.2712
      3 C          60.6337   89.7382    9.5888 C.3     1  UNL1        0.0725
      4 C          60.1413   88.5451    8.8245 C.3     1  UNL1        0.0210
      5 C          59.1233   88.0790    7.8263 C.3     1  UNL1        0.0018
      6 C          59.3447   86.6148    7.5878 C.3     1  UNL1        0.0004
      7 C          60.4996   86.1759    8.4385 C.3     1  UNL1        0.0054
      8 C          60.9919   87.3690    9.2028 C.3     1  UNL1        0.0349
      9 C          62.0100   87.8351   10.2010 C.3     1  UNL1        0.0762
     10 C          61.8425   86.1928    9.5812 C.ar    1  UNL1       -0.0206
     11 C          62.7246   85.5444    8.5558 C.ar    1  UNL1       -0.0033
     12 C          63.5752   84.3682    8.9342 C.ar    1  UNL1        0.0119
     13 C          63.5437   83.8406   10.3380 C.ar    1  UNL1        0.0682
     14 CL         64.3943   82.6644   10.7163 Cl      1  UNL1       -0.0814
     15 C          62.6616   84.4890   11.3633 C.ar    1  UNL1        0.0679
     16 CL         62.6301   83.9613   12.7671 Cl      1  UNL1       -0.0814
     17 C          61.8110   85.6652   10.9849 C.ar    1  UNL1        0.0080
@<TRIPOS>BOND
     1     1     2    1
     2     2     3    1
     3     4     3    1
     4     4     5    1
     5     5     6    1
     6     6     7    1
     7     7     8    1
     8     8    10    1
     9    10    11   ar
    10    11    12   ar
    11    12    13   ar
    12    13    14    1
    13    13    15   ar
    14    15    16    1
    15    15    17   ar
    16     8     9    1
    17     9     2    1
    18     8     4    1
    19    17    10   ar
@<TRIPOS>MOLECULE
*****
 17 19 0 0 0
SMALL
GASTEIGER

@<TRIPOS>ATOM
      1 C          64.3073   86.7130   14.9733 C.3     1  UNL1        0.0896
      2 N          63.7178   85.4022   14.5440 N.3     1  UNL1       -0.2712
      3 C          63.3224   84.2742   15.4503 C.3     1  UNL1        0.0725
      4 C          62.7804   83.1641   14.5994 C.3     1  UNL1        0.0210
      5 C          62.2011   81.7809   14.6336 C.3     1  UNL1        0.0018
      6 C          61.9035   81.3680   13.2226 C.3     1  UNL1        0.0004
      7 C          62.2989   82.4960   12.3163 C.3     1  UNL1        0.0054
      8 C          62.8409   83.6061   13.1672 C.3     1  UNL1        0.0349
      9 C          63.4202   84.9893   13.1330 C.3     1  UNL1        0.0762
     10 C          62.9013   84.0480   11.7351 C.ar    1  UNL1       -0.0206
     11 C          63.7740   83.3148   10.7601 C.ar    1  UNL1       -0.0033
     12 C          63.8344   83.7568    9.3279 C.ar    1  UNL1        0.0119
     13 C          63.0221   84.9320    8.8709 C.ar    1  UNL1        0.0682
     14 CL         63.0825   85.3739    7.4387 Cl      1  UNL1       -0.0814
     15 C          62.1493   85.6652    9.8459 C.ar    1  UNL1        0.0679
     16 CL         61.3370   86.8405    9.3887 Cl      1  UNL1       -0.0814
     17 C          62.0890   85.2232   11.2780 C.ar    1  UNL1        0.0080
@<TRIPOS>BOND
     1     1     2    1
     2     2     3    1
     3     4     3    1
     4     4     5    1
     5     5     6    1
     6     6     7    1
     7     7     8    1
     8     8    10    1
     9    10    11   ar
    10    11    12   ar
    11    12    13   ar
    12    13    14    1
    13    13    15   ar
    14    15    16    1
    15    15    17   ar
    16     8     9    1
    17     9     2    1
    18     8     4    1
    19    17    10   ar
@<TRIPOS>MOLECULE
*****
 17 19 0 0 0
SMALL
GASTEIGER

@<TRIPOS>ATOM
      1 C          63.0997   90.2076   12.6768 C.3     1  UNL1        0.0896
      2 N          64.1875   90.9939   13.3463 N.3     1  UNL1       -0.2712
      3 C          64.5130   90.9789   14.8105 C.3     1  UNL1        0.0725
      4 C          65.6675   91.9091   15.0383 C.3     1  UNL1        0.0210
      5 C          66.5821   92.4746   16.0840 C.3     1  UNL1        0.0018
      6 C          67.5355   93.4141   15.4069 C.3     1  UNL1        0.0004
      7 C          67.2100   93.4292   13.9427 C.3     1  UNL1        0.0054
      8 C          66.0555   92.4990   13.7149 C.3     1  UNL1        0.0349
      9 C          65.1409   91.9334   12.6692 C.3     1  UNL1        0.0762
     10 C          66.4436   93.0889   12.3915 C.ar    1  UNL1       -0.0206
     11 C          66.0597   94.5000   12.0578 C.ar    1  UNL1       -0.0033
     12 C          66.4478   95.0899   10.7343 C.ar    1  UNL1        0.0119
     13 C          67.2197   94.2686    9.7446 C.ar    1  UNL1        0.0682
     14 CL         67.6078   94.8585    8.4212 Cl      1  UNL1       -0.0814
     15 C          67.6036   92.8575   10.0783 C.ar    1  UNL1        0.0679
     16 CL         68.3756   92.0363    9.0885 Cl      1  UNL1       -0.0814
     17 C          67.2155   92.2676   11.4018 C.ar    1  UNL1        0.0080
@<TRIPOS>BOND
     1     1     2    1
     2     2     3    1
     3     4     3    1
     4     4     5    1
     5     5     6    1
     6     6     7    1
     7     7     8    1
     8     8    10    1
     9    10    11   ar
    10    11    12   ar
    11    12    13   ar
    12    13    14    1
    13    13    15   ar
    14    15    16    1
    15    15    17   ar
    16     8     9    1
    17     9     2    1
    18     8     4    1
    19    17    10   ar
@<TRIPOS>MOLECULE
*****
 17 19 0 0 0
SMALL
GASTEIGER

@<TRIPOS>ATOM
      1 C          61.3554   81.0243   14.1449 C.3     1  UNL1        0.0896
      2 N          62.0717   82.3381   14.2462 N.3     1  UNL1       -0.2712
      3 C          62.5315   82.9963   15.5133 C.3     1  UNL1        0.0725
      4 C          63.1981   84.2896   15.1485 C.3     1  UNL1        0.0210
      5 C          63.8942   85.4956   15.7062 C.3     1  UNL1        0.0018
      6 C          64.2767   86.3821   14.5582 C.3     1  UNL1        0.0004
      7 C          63.8170   85.7240   13.2911 C.3     1  UNL1        0.0054
      8 C          63.1504   84.4307   13.6559 C.3     1  UNL1        0.0349
      9 C          62.4543   83.2247   13.0983 C.3     1  UNL1        0.0762
     10 C          63.1027   84.5719   12.1633 C.ar    1  UNL1       -0.0206
     11 C          63.8384   83.5959   11.2938 C.ar    1  UNL1       -0.0033
     12 C          63.7906   83.7371    9.8012 C.ar    1  UNL1        0.0119
     13 C          63.0072   84.8542    9.1782 C.ar    1  UNL1        0.0682
     14 CL         62.9595   84.9954    7.6856 Cl      1  UNL1       -0.0814
     15 C          62.2714   85.8302   10.0478 C.ar    1  UNL1        0.0679
     16 CL         61.4880   86.9473    9.4247 Cl      1  UNL1       -0.0814
     17 C          62.3192   85.6890   11.5404 C.ar    1  UNL1        0.0080
@<TRIPOS>BOND
     1     1     2    1
     2     2     3    1
     3     4     3    1
     4     4     5    1
     5     5     6    1
     6     6     7    1
     7     7     8    1
     8     8    10    1
     9    10    11   ar
    10    11    12   ar
    11    12    13   ar
    12    13    14    1
    13    13    15   ar
    14    15    16    1
    15    15    17   ar
    16     8     9    1
    17     9     2    1
    18     8     4    1
    19    17    10   ar
@<TRIPOS>MOLECULE
*****
 17 19 0 0 0
SMALL
GASTEIGER

@<TRIPOS>ATOM
      1 C          61.7982   90.0387   10.8565 C.3     1  UNL1        0.0896
      2 N          62.9398   90.4686   11.7293 N.3     1  UNL1       -0.2712
      3 C          63.9404   91.5390   11.4084 C.3     1  UNL1        0.0725
      4 C          64.9003   91.6356   12.5570 C.3     1  UNL1        0.0210
      5 C          66.1120   92.3568   13.0685 C.3     1  UNL1        0.0018
      6 C          66.4535   91.7918   14.4154 C.3     1  UNL1        0.0004
      7 C          65.4529   90.7214   14.7363 C.3     1  UNL1        0.0054
      8 C          64.4930   90.6248   13.5877 C.3     1  UNL1        0.0349
      9 C          63.2813   89.9036   13.0762 C.3     1  UNL1        0.0762
     10 C          64.0856   89.6140   14.6185 C.ar    1  UNL1       -0.0206
     11 C          63.3925   90.0588   15.8722 C.ar    1  UNL1       -0.0033
     12 C          62.9852   89.0480   16.9029 C.ar    1  UNL1        0.0119
     13 C          63.2709   87.5925   16.6799 C.ar    1  UNL1        0.0682
     14 CL         62.8635   86.5817   17.7106 Cl      1  UNL1       -0.0814
     15 C          63.9640   87.1477   15.4261 C.ar    1  UNL1        0.0679
     16 CL         64.2496   85.6921   15.2032 Cl      1  UNL1       -0.0814
     17 C          64.3713   88.1585   14.3954 C.ar    1  UNL1        0.0080
@<TRIPOS>BOND
     1     1     2    1
     2     2     3    1
     3     4     3    1
     4     4     5    1
     5     5     6    1
     6     6     7    1
     7     7     8    1
     8     8    10    1
     9    10    11   ar
    10    11    12   ar
    11    12    13   ar
    12    13    14    1
    13    13    15   ar
    14    15    16    1
    15    15    17   ar
    16     8     9    1
    17     9     2    1
    18     8     4    1
    19    17    10   ar
@<TRIPOS>MOLECULE
*****
 17 19 0 0 0
SMALL
GASTEIGER

@<TRIPOS>ATOM
      1 C          64.5547   86.5881   14.9575 C.3     1  UNL1        0.0896
      2 N          64.1772   85.3326   14.2288 N.3     1  UNL1       -0.2712
      3 C          64.4307   83.9306   14.6979 C.3     1  UNL1        0.0725
      4 C          63.8900   82.9901   13.6620 C.3     1  UNL1        0.0210
      5 C          63.7126   81.5424   13.3118 C.3     1  UNL1        0.0018
      6 C          63.0152   81.4685   11.9858 C.3     1  UNL1        0.0004
      7 C          62.7615   82.8704   11.5166 C.3     1  UNL1        0.0054
      8 C          63.3023   83.8109   12.5525 C.3     1  UNL1        0.0349
      9 C          63.4797   85.2586   12.9028 C.3     1  UNL1        0.0762
     10 C          62.7145   84.6317   11.4431 C.ar    1  UNL1       -0.0206
     11 C          61.6956   85.6886   11.7508 C.ar    1  UNL1       -0.0033
     12 C          61.1079   86.5094   10.6412 C.ar    1  UNL1        0.0119
     13 C          61.5391   86.2731    9.2241 C.ar    1  UNL1        0.0682
     14 CL         60.9513   87.0939    8.1147 Cl      1  UNL1       -0.0814
     15 C          62.5580   85.2162    8.9165 C.ar    1  UNL1        0.0679
     16 CL         62.9891   84.9800    7.4993 Cl      1  UNL1       -0.0814
     17 C          63.1457   84.3954   10.0260 C.ar    1  UNL1        0.0080
@<TRIPOS>BOND
     1     1     2    1
     2     2     3    1
     3     4     3    1
     4     4     5    1
     5     5     6    1
     6     6     7    1
     7     7     8    1
     8     8    10    1
     9    10    11   ar
    10    11    12   ar
    11    12    13   ar
    12    13    14    1
    13    13    15   ar
    14    15    16    1
    15    15    17   ar
    16     8     9    1
    17     9     2    1
    18     8     4    1
    19    17    10   ar
@<TRIPOS>MOLECULE
*****
 17 19 0 0 0
SMALL
GASTEIGER

@<TRIPOS>ATOM
      1 C          63.2171   89.4916   15.9938 C.3     1  UNL1        0.0896
      2 N          63.6132   90.1677   14.7149 N.3     1  UNL1       -0.2712
      3 C          64.6579   91.2341   14.5681 C.3     1  UNL1        0.0725
      4 C          64.7244   91.6217   13.1205 C.3     1  UNL1        0.0210
      5 C          65.4112   92.5203   12.1352 C.3     1  UNL1        0.0018
      6 C          64.8321   92.2488   10.7784 C.3     1  UNL1        0.0004
      7 C          63.7874   91.1825   10.9252 C.3     1  UNL1        0.0054
      8 C          63.7208   90.7949   12.3727 C.3     1  UNL1        0.0349
      9 C          63.0340   89.8963   13.3580 C.3     1  UNL1        0.0762
     10 C          62.7173   89.9681   11.6249 C.ar    1  UNL1       -0.0206
     11 C          61.6191   90.6381   10.8534 C.ar    1  UNL1       -0.0033
     12 C          60.6156   89.8112   10.1056 C.ar    1  UNL1        0.0119
     13 C          60.7102   88.3144   10.1293 C.ar    1  UNL1        0.0682
     14 CL         59.7066   87.4876    9.3814 Cl      1  UNL1       -0.0814
     15 C          61.8083   87.6444   10.9007 C.ar    1  UNL1        0.0679
     16 CL         61.9029   86.1476   10.9244 Cl      1  UNL1       -0.0814
     17 C          62.8119   88.4713   11.6485 C.ar    1  UNL1        0.0080
@<TRIPOS>BOND
     1     1     2    1
     2     2     3    1
     3     4     3    1
     4     4     5    1
     5     5     6    1
     6     6     7    1
     7     7     8    1
     8     8    10    1
     9    10    11   ar
    10    11    12   ar
    11    12    13   ar
    12    13    14    1
    13    13    15   ar
    14    15    16    1
    15    15    17   ar
    16     8     9    1
    17     9     2    1
    18     8     4    1
    19    17    10   ar
@<TRIPOS>MOLECULE
*****
 17 19 0 0 0
SMALL
GASTEIGER

@<TRIPOS>ATOM
      1 C          59.7116   88.4422   11.5112 C.3     1  UNL1        0.0896
      2 N          60.5655   87.4805   10.7395 N.3     1  UNL1       -0.2712
      3 C          60.6586   87.3870    9.2453 C.3     1  UNL1        0.0725
      4 C          61.6270   86.2921    8.9087 C.3     1  UNL1        0.0210
      5 C          62.2829   85.5576    7.7772 C.3     1  UNL1        0.0018
      6 C          63.1938   84.5204    8.3641 C.3     1  UNL1        0.0004
      7 C          63.1008   84.6138    9.8583 C.3     1  UNL1        0.0054
      8 C          62.1324   85.7087   10.1949 C.3     1  UNL1        0.0349
      9 C          61.4765   86.4432   11.3264 C.3     1  UNL1        0.0762
     10 C          62.6379   85.1254   11.4811 C.ar    1  UNL1       -0.0206
     11 C          62.5232   83.6511   11.7321 C.ar    1  UNL1       -0.0033
     12 C          63.0287   83.0678   13.0184 C.ar    1  UNL1        0.0119
     13 C          63.6488   83.9590   14.0534 C.ar    1  UNL1        0.0682
     14 CL         64.1542   83.3756   15.3396 Cl      1  UNL1       -0.0814
     15 C          63.7634   85.4333   13.8024 C.ar    1  UNL1        0.0679
     16 CL         64.3835   86.3244   14.8375 Cl      1  UNL1       -0.0814
     17 C          63.2579   86.0166   12.5161 C.ar    1  UNL1        0.0080
@<TRIPOS>BOND
     1     1     2    1
     2     2     3    1
     3     4     3    1
     4     4     5    1
     5     5     6    1
     6     6     7    1
     7     7     8    1
     8     8    10    1
     9    10    11   ar
    10    11    12   ar
    11    12    13   ar
    12    13    14    1
    13    13    15   ar
    14    15    16    1
    15    15    17   ar
    16     8     9    1
    17     9     2    1
    18     8     4    1
    19    17    10   ar
@<TRIPOS>MOLECULE
*****
 17 19 0 0 0
SMALL
GASTEIGER

@<TRIPOS>ATOM
      1 C          63.7650   85.6382   13.9312 C.3     1  UNL1        0.0896
      2 N          63.5188   86.9413   13.2305 N.3     1  UNL1       -0.2712
      3 C          63.9813   88.2917   13.6917 C.3     1  UNL1        0.0725
      4 C          63.5151   89.3079   12.6917 C.3     1  UNL1        0.0210
      5 C          63.5129   90.7705   12.3588 C.3     1  UNL1        0.0018
      6 C          62.7609   90.9521   11.0736 C.3     1  UNL1        0.0004
      7 C          62.2984   89.6018   10.6123 C.3     1  UNL1        0.0054
      8 C          62.7645   88.5856   11.6124 C.3     1  UNL1        0.0349
      9 C          62.7668   87.1230   11.9453 C.3     1  UNL1        0.0762
     10 C          62.0139   87.8633   10.5331 C.ar    1  UNL1       -0.0206
     11 C          60.5583   88.1495   10.3115 C.ar    1  UNL1       -0.0033
     12 C          59.8077   87.4271    9.2321 C.ar    1  UNL1        0.0119
     13 C          60.5129   86.4187    8.3744 C.ar    1  UNL1        0.0682
     14 CL         59.7623   85.6964    7.2951 Cl      1  UNL1       -0.0814
     15 C          61.9686   86.1325    8.5960 C.ar    1  UNL1        0.0679
     16 CL         62.6736   85.1240    7.7382 Cl      1  UNL1       -0.0814
     17 C          62.7191   86.8548    9.6753 C.ar    1  UNL1        0.0080
@<TRIPOS>BOND
     1     1     2    1
     2     2     3    1
     3     4     3    1
     4     4     5    1
     5     5     6    1
     6     6     7    1
     7     7     8    1
     8     8    10    1
     9    10    11   ar
    10    11    12   ar
    11    12    13   ar
    12    13    14    1
    13    13    15   ar
    14    15    16    1
    15    15    17   ar
    16     8     9    1
    17     9     2    1
    18     8     4    1
    19    17    10   ar
