@<TRIPOS>MOLECULE
*****
 47 52 0 0 0
SMALL
GASTEIGER

@<TRIPOS>ATOM
      1 C          59.1970   96.3647   -3.6673 C.ar    1  UNL1        0.1348
      2 C          60.5241   96.8525   -4.1680 C.ar    1  UNL1        0.0346
      3 C          61.7765   96.5332   -3.4067 C.ar    1  UNL1        0.0065
      4 C          61.7017   95.7259   -2.1447 C.ar    1  UNL1        0.0432
      5 C          60.3746   95.2381   -1.6440 C.ar    1  UNL1        0.1256
      6 N          59.1222   95.5575   -2.4053 N.ar    1  UNL1       -0.2222
      7 C          62.9541   95.4065   -1.3833 C.ar    1  UNL1        0.0850
      8 C          64.1245   94.6235   -1.9000 C.ar    1  UNL1        0.1005
      9 N          65.1497   94.5471   -0.8077 N.ar    1  UNL1       -0.2264
     10 C          64.6128   95.2830    0.3841 C.ar    1  UNL1        0.1474
     11 C          65.1843   95.5380    1.7473 C.ar    1  UNL1        0.0332
     12 C          64.3988   96.3241    2.7548 C.ar    1  UNL1       -0.0174
     13 C          64.9703   96.5792    4.1180 C.3     1  UNL1        0.0312
     14 C          63.0418   96.8553    2.3990 C.ar    1  UNL1        0.0149
     15 C          62.4704   96.6003    1.0358 C.ar    1  UNL1        0.0811
     16 N          63.2559   95.8141    0.0283 N.ar    1  UNL1       -0.2888
     17 C          64.2481   94.0224   -3.2687 C.ar    1  UNL1        0.0385
     18 C          64.9603   94.7719   -4.3556 C.ar    1  UNL1        0.0079
     19 C          65.0839   94.1707   -5.7243 C.ar    1  UNL1        0.0578
     20 C          64.4953   92.8201   -6.0062 C.ar    1  UNL1        0.2250
     21 N          63.7831   92.0707   -4.9194 N.ar    1  UNL1       -0.2101
     22 C          63.6595   92.6718   -3.5507 C.ar    1  UNL1        0.1036
     23 O          64.6189   92.2190   -7.3749 O.3     1  UNL1       -0.4561
     24 C          65.3297   90.9109   -7.5580 C.3     1  UNL1        0.2542
     25 C          56.9316   95.6094   -4.6907 C.2     1  UNL1        0.2414
     26 O          57.1708   94.2153   -4.1914 O.2     1  UNL1       -0.2733
     27 N          57.9446   96.6841   -4.4286 N.am    1  UNL1       -0.2682
     28 H          57.7876   97.5991   -4.7563 H       1  UNL1        0.1563
     29 C          55.6792   95.9288   -5.4520 C.3     1  UNL1        0.1319
     30 C          55.7347   96.1269   -6.9379 C.3     1  UNL1        0.0270
     31 C          53.1896   96.6705   -5.4119 C.3     1  UNL1        0.0862
     32 N          54.3714   96.0501   -4.7275 N.3     1  UNL1       -0.2902
     33 H          54.0944   95.1056   -4.4599 H       1  UNL1        0.1237
     34 C          60.2998   94.4308   -0.3819 C.1     1  UNL1       -0.0404
     35 C          60.2250   93.6235    0.8801 C.1     1  UNL1       -0.0583
     36 C          60.1502   92.8163    2.1422 C.ar    1  UNL1        0.0421
     37 C          61.4093   92.3373    2.8019 C.ar    1  UNL1        0.0097
     38 C          61.3345   91.5300    4.0639 C.ar    1  UNL1        0.0179
     39 C          60.0005   91.2018    4.6662 C.ar    1  UNL1        0.0625
     40 C          58.7414   91.6808    4.0066 C.ar    1  UNL1        0.0166
     41 C          57.4075   91.3526    4.6090 C.ar    1  UNL1        0.0063
     42 C          57.3326   90.5453    5.8710 C.ar    1  UNL1        0.0608
     43 C          58.5918   90.0663    6.5307 C.ar    1  UNL1        0.2610
     44 O          58.5169   89.2591    7.7927 O.2     1  UNL1       -0.2670
     45 N          59.9257   90.3945    5.9283 N.ar    1  UNL1       -0.2935
     46 C          61.1848   89.9155    6.5880 C.3     1  UNL1        0.1335
     47 C          58.8163   92.4880    2.7446 C.ar    1  UNL1        0.0097
@<TRIPOS>BOND
     1    31    32    1
     2    32    29    1
     3    29    30    1
     4    29    25    1
     5    25    26    2
     6    25    27   am
     7    27     1    1
     8     1     2   ar
     9     2     3   ar
    10     3     4   ar
    11     4     7    1
    12     7     8   ar
    13     8    17    1
    14    17    18   ar
    15    18    19   ar
    16    19    20   ar
    17    20    23    1
    18    23    24    1
    19    20    21   ar
    20    21    22   ar
    21     8     9   ar
    22     9    10   ar
    23    10    11   ar
    24    11    12   ar
    25    12    13    1
    26    12    14   ar
    27    14    15   ar
    28    15    16   ar
    29     4     5   ar
    30     5    34    1
    31    34    35    3
    32    35    36    1
    33    36    37   ar
    34    37    38   ar
    35    38    39   ar
    36    39    40   ar
    37    40    41   ar
    38    41    42   ar
    39    42    43   ar
    40    43    44    2
    41    43    45   ar
    42    45    46    1
    43    40    47   ar
    44     5     6   ar
    45     6     1   ar
    46    16     7   ar
    47    47    36   ar
    48    22    17   ar
    49    16    10   ar
    50    45    39   ar
    51    32    33    1
    52    27    28    1
