@<TRIPOS>MOLECULE
*****
 45 49 0 0 0
SMALL
GASTEIGER

@<TRIPOS>ATOM
      1 C          62.9905   89.4383   11.9924 C.2     1  UNL1        0.2411
      2 O          62.6407   90.0741   13.3052 O.2     1  UNL1       -0.2733
      3 N          63.7178   90.2295   10.9460 N.am    1  UNL1       -0.2966
      4 H          63.9473   89.8121   10.0844 H       1  UNL1        0.1499
      5 C          62.6131   88.0111   11.7261 C.3     1  UNL1        0.1554
      6 C          60.2561   87.7980   10.6542 C.2     1  UNL1        0.4017
      7 O          59.6311   88.2643   11.9356 O.2     1  UNL1       -0.2264
      8 N          61.7471   87.6714   10.5495 N.am    1  UNL1       -0.2637
      9 H          62.1573   87.3654    9.7084 H       1  UNL1        0.1532
     10 O          59.3901   87.4583    9.4775 O.3     1  UNL1       -0.4419
     11 C          59.0753   87.0342    7.4230 C.3     1  UNL1        0.0437
     12 C          59.5188   88.2369    8.2019 C.3     1  UNL1        0.1378
     13 C          59.9624   89.4396    8.9808 C.3     1  UNL1        0.0437
     14 C          59.6476   89.0155    6.9263 C.3     1  UNL1        0.0437
     15 C          63.1017   86.9237   12.6366 C.3     1  UNL1        0.0554
     16 C          63.2534   85.5240   12.1190 C.ar    1  UNL1       -0.0139
     17 C          63.0325   85.2343   10.6640 C.ar    1  UNL1       -0.0041
     18 C          63.1843   83.8346   10.1465 C.ar    1  UNL1        0.0020
     19 C          63.5570   82.7246   11.0841 C.ar    1  UNL1        0.0296
     20 C          63.7779   83.0143   12.5391 C.ar    1  UNL1        0.1437
     21 F          64.1505   81.9044   13.4767 F       1  UNL1       -0.2042
     22 C          63.6261   84.4140   13.0566 C.ar    1  UNL1        0.0949
     23 C          63.8470   84.7038   14.5117 C.3     1  UNL1        0.4204
     24 F          64.0680   84.9935   15.9668 F       1  UNL1       -0.1658
     25 F          65.3032   84.9428   14.2430 F       1  UNL1       -0.1658
     26 F          62.3908   84.4648   14.7804 F       1  UNL1       -0.1658
     27 C          64.0952   91.6566   11.2122 C.3     1  UNL1        0.1543
     28 C          65.0504   91.9854   12.3210 C.ar    1  UNL1        0.1417
     29 N          64.7533   91.9179   13.7897 N.ar    1  UNL1       -0.2276
     30 C          65.9897   92.3302   14.5323 C.ar    1  UNL1        0.1167
     31 C          66.2862   92.4538   15.9974 C.ar    1  UNL1        0.0238
     32 C          67.6441   92.8998   16.4527 C.ar    1  UNL1        0.0223
     33 C          68.7054   93.2221   15.4429 C.ar    1  UNL1        0.1006
     34 N          68.4088   93.0986   13.9777 N.ar    1  UNL1       -0.2252
     35 C          67.0509   92.6526   13.5224 C.ar    1  UNL1        0.1626
     36 N          66.4704   92.4395   12.1558 N.ar    1  UNL1       -0.2990
     37 C          67.1846   92.6445   10.8528 C.3     1  UNL1        0.0898
     38 C          68.0471   92.3621    9.6585 C.3     1  UNL1        0.0273
     39 C          67.8599   91.3123   10.7134 C.3     1  UNL1        0.0273
     40 C          66.7574   94.0478   10.5395 C.ar    1  UNL1       -0.0037
     41 C          66.1469   94.9026   11.6103 C.ar    1  UNL1       -0.0025
     42 C          65.7197   96.3060   11.2971 C.ar    1  UNL1       -0.0003
     43 C          65.9030   96.8545    9.9131 C.ar    1  UNL1       -0.0000
     44 C          66.5136   95.9997    8.8423 C.ar    1  UNL1       -0.0003
     45 C          66.9408   94.5963    9.1555 C.ar    1  UNL1       -0.0025
@<TRIPOS>BOND
     1    11    12    1
     2    12    13    1
     3    12    14    1
     4    12    10    1
     5    10     6    1
     6     6     7    2
     7     6     8   am
     8     8     5    1
     9     5    15    1
    10    15    16    1
    11    16    17   ar
    12    17    18   ar
    13    18    19   ar
    14    19    20   ar
    15    20    21    1
    16    20    22   ar
    17    22    23    1
    18    23    24    1
    19    23    25    1
    20    23    26    1
    21     5     1    1
    22     1     2    2
    23     1     3   am
    24     3    27    1
    25    27    28    1
    26    28    29   ar
    27    29    30   ar
    28    30    31   ar
    29    31    32   ar
    30    32    33   ar
    31    33    34   ar
    32    34    35   ar
    33    35    36   ar
    34    36    37    1
    35    37    40    1
    36    40    41   ar
    37    41    42   ar
    38    42    43   ar
    39    43    44   ar
    40    44    45   ar
    41    37    38    1
    42    38    39    1
    43    22    16   ar
    44    36    28   ar
    45    39    37    1
    46    35    30   ar
    47    45    40   ar
    48     8     9    1
    49     3     4    1
@<TRIPOS>MOLECULE
*****
 45 49 0 0 0
SMALL
GASTEIGER

@<TRIPOS>ATOM
      1 C          63.5080   86.9747   13.4305 C.2     1  UNL1        0.2411
      2 O          63.9061   86.7755   14.8629 O.2     1  UNL1       -0.2733
      3 N          63.4853   88.3548   12.8434 N.am    1  UNL1       -0.2966
      4 H          63.2240   88.4856   11.9032 H       1  UNL1        0.1499
      5 C          63.1325   85.7938   12.5852 C.3     1  UNL1        0.1554
      6 C          61.6040   86.4569   10.5917 C.2     1  UNL1        0.4017
      7 O          62.7459   87.1993    9.9632 O.2     1  UNL1       -0.2264
      8 N          61.7974   85.7541   11.9028 N.am    1  UNL1       -0.2637
      9 H          61.0480   85.2668   12.3153 H       1  UNL1        0.1532
     10 O          60.2689   86.4172    9.9092 O.3     1  UNL1       -0.4419
     11 C          59.9535   88.5149    9.9101 C.3     1  UNL1        0.0437
     12 C          59.9298   87.4392    8.8650 C.3     1  UNL1        0.1378
     13 C          59.9061   86.3635    7.8199 C.3     1  UNL1        0.0437
     14 C          59.5906   88.4613    7.8207 C.3     1  UNL1        0.0437
     15 C          64.0923   84.6525   12.4224 C.3     1  UNL1        0.0554
     16 C          63.5781   83.2455   12.3441 C.ar    1  UNL1       -0.0139
     17 C          63.6653   82.4859   11.0536 C.ar    1  UNL1       -0.0041
     18 C          63.1512   81.0790   10.9753 C.ar    1  UNL1        0.0020
     19 C          62.5497   80.4317   12.1874 C.ar    1  UNL1        0.0296
     20 C          62.4625   81.1913   13.4779 C.ar    1  UNL1        0.1437
     21 F          61.8610   80.5440   14.6900 F       1  UNL1       -0.2042
     22 C          62.9766   82.5982   13.5562 C.ar    1  UNL1        0.0949
     23 C          62.8894   83.3579   14.8467 C.3     1  UNL1        0.4204
     24 F          62.8021   84.1176   16.1371 F       1  UNL1       -0.1658
     25 F          61.4959   83.7899   14.4982 F       1  UNL1       -0.1658
     26 F          64.2829   82.9260   15.1953 F       1  UNL1       -0.1658
     27 C          63.8608   89.5357   13.6886 C.3     1  UNL1        0.1543
     28 C          64.3943   90.7804   13.0436 C.ar    1  UNL1        0.1417
     29 N          64.3252   91.1158   11.5832 N.ar    1  UNL1       -0.2276
     30 C          64.9788   92.4510   11.3827 C.ar    1  UNL1        0.1167
     31 C          65.2043   93.2840   10.1558 C.ar    1  UNL1        0.0238
     32 C          65.9029   94.6068   10.2655 C.ar    1  UNL1        0.0223
     33 C          66.3760   95.0966   11.6020 C.ar    1  UNL1        0.1006
     34 N          66.1505   94.2636   12.8289 N.ar    1  UNL1       -0.2252
     35 C          65.4519   92.9408   12.7192 C.ar    1  UNL1        0.1626
     36 N          65.0907   91.9083   13.7456 N.ar    1  UNL1       -0.2990
     37 C          65.3758   91.9896   15.2161 C.3     1  UNL1        0.0898
     38 C          65.1519   91.9603   16.6990 C.3     1  UNL1        0.0273
     39 C          64.0093   91.6997   15.7628 C.3     1  UNL1        0.0273
     40 C          66.8412   92.3076   15.1801 C.ar    1  UNL1       -0.0037
     41 C          67.7444   91.5756   14.2323 C.ar    1  UNL1       -0.0025
     42 C          69.2099   91.8936   14.1963 C.ar    1  UNL1       -0.0003
     43 C          69.7721   92.9436   15.1082 C.ar    1  UNL1       -0.0000
     44 C          68.8688   93.6756   16.0561 C.ar    1  UNL1       -0.0003
     45 C          67.4034   93.3576   16.0920 C.ar    1  UNL1       -0.0025
@<TRIPOS>BOND
     1    11    12    1
     2    12    13    1
     3    12    14    1
     4    12    10    1
     5    10     6    1
     6     6     7    2
     7     6     8   am
     8     8     5    1
     9     5    15    1
    10    15    16    1
    11    16    17   ar
    12    17    18   ar
    13    18    19   ar
    14    19    20   ar
    15    20    21    1
    16    20    22   ar
    17    22    23    1
    18    23    24    1
    19    23    25    1
    20    23    26    1
    21     5     1    1
    22     1     2    2
    23     1     3   am
    24     3    27    1
    25    27    28    1
    26    28    29   ar
    27    29    30   ar
    28    30    31   ar
    29    31    32   ar
    30    32    33   ar
    31    33    34   ar
    32    34    35   ar
    33    35    36   ar
    34    36    37    1
    35    37    40    1
    36    40    41   ar
    37    41    42   ar
    38    42    43   ar
    39    43    44   ar
    40    44    45   ar
    41    37    38    1
    42    38    39    1
    43    22    16   ar
    44    36    28   ar
    45    39    37    1
    46    35    30   ar
    47    45    40   ar
    48     8     9    1
    49     3     4    1
@<TRIPOS>MOLECULE
*****
 45 49 0 0 0
SMALL
GASTEIGER

@<TRIPOS>ATOM
      1 C          62.9808   89.5846   11.7587 C.2     1  UNL1        0.2411
      2 O          62.6285   90.1106   13.1186 O.2     1  UNL1       -0.2733
      3 N          63.7060   90.4605   10.7805 N.am    1  UNL1       -0.2966
      4 H          63.9372   90.1153    9.8880 H       1  UNL1        0.1499
      5 C          62.6079   88.1827   11.3771 C.3     1  UNL1        0.1554
      6 C          62.6395   85.8478   12.5161 C.2     1  UNL1        0.4017
      7 O          63.7218   85.4043   11.5770 O.2     1  UNL1       -0.2264
      8 N          62.0826   87.2370   12.4161 N.am    1  UNL1       -0.2637
      9 H          61.3722   87.5281   13.0325 H       1  UNL1        0.1532
     10 O          62.1142   84.9021   13.5552 O.3     1  UNL1       -0.4419
     11 C          63.6708   85.3000   14.9402 C.3     1  UNL1        0.0437
     12 C          63.0656   84.0599   14.3522 C.3     1  UNL1        0.1378
     13 C          62.4604   82.8198   13.7642 C.3     1  UNL1        0.0437
     14 C          64.0171   83.2176   15.1494 C.3     1  UNL1        0.0437
     15 C          62.7604   87.7265    9.9563 C.3     1  UNL1        0.0554
     16 C          61.5445   87.4813    9.1127 C.ar    1  UNL1       -0.0139
     17 C          60.5042   88.5520    8.9673 C.ar    1  UNL1       -0.0041
     18 C          59.2884   88.3068    8.1238 C.ar    1  UNL1        0.0020
     19 C          59.1129   86.9908    7.4256 C.ar    1  UNL1        0.0296
     20 C          60.1532   85.9201    7.5709 C.ar    1  UNL1        0.1437
     21 F          59.9778   84.6041    6.8728 F       1  UNL1       -0.2042
     22 C          61.3690   86.1653    8.4145 C.ar    1  UNL1        0.0949
     23 C          62.4095   85.0946    8.5599 C.3     1  UNL1        0.4204
     24 F          63.4498   84.0238    8.7053 F       1  UNL1       -0.1658
     25 F          61.7258   84.5987    9.7995 F       1  UNL1       -0.1658
     26 F          63.0931   85.5904    7.3203 F       1  UNL1       -0.1658
     27 C          64.0788   91.8624   11.1622 C.3     1  UNL1        0.1543
     28 C          65.0491   92.1023   12.2807 C.ar    1  UNL1        0.1417
     29 N          64.7413   92.0250   13.7467 N.ar    1  UNL1       -0.2276
     30 C          65.9995   92.3366   14.5016 C.ar    1  UNL1        0.1167
     31 C          66.2970   92.4094   15.9700 C.ar    1  UNL1        0.0238
     32 C          67.6800   92.7522   16.4388 C.ar    1  UNL1        0.0223
     33 C          68.7654   93.0221   15.4394 C.ar    1  UNL1        0.1006
     34 N          68.4679   92.9493   13.9710 N.ar    1  UNL1       -0.2252
     35 C          67.0849   92.6065   13.5021 C.ar    1  UNL1        0.1626
     36 N          66.4975   92.4617   12.1295 N.ar    1  UNL1       -0.2990
     37 C          67.2301   92.6443   10.8333 C.3     1  UNL1        0.0898
     38 C          68.1050   92.3395    9.6537 C.3     1  UNL1        0.0273
     39 C          67.8947   91.3044   10.7187 C.3     1  UNL1        0.0273
     40 C          66.8199   94.0475   10.4977 C.ar    1  UNL1       -0.0037
     41 C          66.1934   94.9170   11.5471 C.ar    1  UNL1       -0.0025
     42 C          65.7831   96.3203   11.2115 C.ar    1  UNL1       -0.0003
     43 C          65.9996   96.8540    9.8265 C.ar    1  UNL1       -0.0000
     44 C          66.6261   95.9844    8.7770 C.ar    1  UNL1       -0.0003
     45 C          67.0363   94.5812    9.1126 C.ar    1  UNL1       -0.0025
@<TRIPOS>BOND
     1    11    12    1
     2    12    13    1
     3    12    14    1
     4    12    10    1
     5    10     6    1
     6     6     7    2
     7     6     8   am
     8     8     5    1
     9     5    15    1
    10    15    16    1
    11    16    17   ar
    12    17    18   ar
    13    18    19   ar
    14    19    20   ar
    15    20    21    1
    16    20    22   ar
    17    22    23    1
    18    23    24    1
    19    23    25    1
    20    23    26    1
    21     5     1    1
    22     1     2    2
    23     1     3   am
    24     3    27    1
    25    27    28    1
    26    28    29   ar
    27    29    30   ar
    28    30    31   ar
    29    31    32   ar
    30    32    33   ar
    31    33    34   ar
    32    34    35   ar
    33    35    36   ar
    34    36    37    1
    35    37    40    1
    36    40    41   ar
    37    41    42   ar
    38    42    43   ar
    39    43    44   ar
    40    44    45   ar
    41    37    38    1
    42    38    39    1
    43    22    16   ar
    44    36    28   ar
    45    39    37    1
    46    35    30   ar
    47    45    40   ar
    48     8     9    1
    49     3     4    1
@<TRIPOS>MOLECULE
*****
 45 49 0 0 0
SMALL
GASTEIGER

@<TRIPOS>ATOM
      1 C          63.1138   89.4003   12.4751 C.2     1  UNL1        0.2411
      2 O          62.8349   89.9635   13.8370 O.2     1  UNL1       -0.2733
      3 N          63.7390   90.2639   11.4199 N.am    1  UNL1       -0.2966
      4 H          63.9220   89.8942   10.5260 H       1  UNL1        0.1499
      5 C          62.7675   87.9734   12.1682 C.3     1  UNL1        0.1554
      6 C          61.3598   87.3574   10.0732 C.2     1  UNL1        0.4017
      7 O          62.5973   87.4079    9.2269 O.2     1  UNL1       -0.2264
      8 N          61.4450   87.6402   11.5439 N.am    1  UNL1       -0.2637
      9 H          60.6328   87.6070   12.0993 H       1  UNL1        0.1532
     10 O          60.0373   87.0242    9.4489 O.3     1  UNL1       -0.4419
     11 C          59.9228   89.0789    8.9344 C.3     1  UNL1        0.0437
     12 C          59.5571   87.7932    8.2539 C.3     1  UNL1        0.1378
     13 C          59.1913   86.5075    7.5735 C.3     1  UNL1        0.0437
     14 C          59.0768   88.5624    7.0590 C.3     1  UNL1        0.0437
     15 C          63.7438   86.8798   12.4857 C.3     1  UNL1        0.0554
     16 C          63.3120   85.7060   13.3140 C.ar    1  UNL1       -0.0139
     17 C          63.1744   85.8474   14.8009 C.ar    1  UNL1       -0.0041
     18 C          62.7426   84.6737   15.6291 C.ar    1  UNL1        0.0020
     19 C          62.4484   83.3586   14.9703 C.ar    1  UNL1        0.0296
     20 C          62.5859   83.2172   13.4834 C.ar    1  UNL1        0.1437
     21 F          62.2917   81.9022   12.8246 F       1  UNL1       -0.2042
     22 C          63.0177   84.3909   12.6552 C.ar    1  UNL1        0.0949
     23 C          63.1553   84.2496   11.1682 C.3     1  UNL1        0.4204
     24 F          63.2930   84.1083    9.6812 F       1  UNL1       -0.1658
     25 F          64.5850   83.8299   11.3404 F       1  UNL1       -0.1658
     26 F          61.7256   84.6693   10.9959 F       1  UNL1       -0.1658
     27 C          64.0853   91.6908   11.7267 C.3     1  UNL1        0.1543
     28 C          65.1438   92.0039   12.7423 C.ar    1  UNL1        0.1417
     29 N          64.9822   91.9416   14.2322 N.ar    1  UNL1       -0.2276
     30 C          66.2884   92.3336   14.8570 C.ar    1  UNL1        0.1167
     31 C          66.7207   92.4525   16.2884 C.ar    1  UNL1        0.0238
     32 C          68.1218   92.8760   16.6160 C.ar    1  UNL1        0.0223
     33 C          69.0907   93.1806   15.5121 C.ar    1  UNL1        0.1006
     34 N          68.6584   93.0617   14.0807 N.ar    1  UNL1       -0.2252
     35 C          67.2573   92.6382   13.7532 C.ar    1  UNL1        0.1626
     36 N          66.5499   92.4345   12.4462 N.ar    1  UNL1       -0.2990
     37 C          67.1442   92.6274   11.0826 C.3     1  UNL1        0.0898
     38 C          67.8898   92.3312    9.8151 C.3     1  UNL1        0.0273
     39 C          67.7860   91.2859   10.8859 C.3     1  UNL1        0.0273
     40 C          66.7090   94.0359   10.8056 C.ar    1  UNL1       -0.0037
     41 C          66.6952   94.5535    9.3978 C.ar    1  UNL1       -0.0025
     42 C          66.2599   95.9620    9.1208 C.ar    1  UNL1       -0.0003
     43 C          65.8385   96.8528   10.2517 C.ar    1  UNL1       -0.0000
     44 C          65.8523   96.3352   11.6595 C.ar    1  UNL1       -0.0003
     45 C          66.2875   94.9267   11.9365 C.ar    1  UNL1       -0.0025
@<TRIPOS>BOND
     1    11    12    1
     2    12    13    1
     3    12    14    1
     4    12    10    1
     5    10     6    1
     6     6     7    2
     7     6     8   am
     8     8     5    1
     9     5    15    1
    10    15    16    1
    11    16    17   ar
    12    17    18   ar
    13    18    19   ar
    14    19    20   ar
    15    20    21    1
    16    20    22   ar
    17    22    23    1
    18    23    24    1
    19    23    25    1
    20    23    26    1
    21     5     1    1
    22     1     2    2
    23     1     3   am
    24     3    27    1
    25    27    28    1
    26    28    29   ar
    27    29    30   ar
    28    30    31   ar
    29    31    32   ar
    30    32    33   ar
    31    33    34   ar
    32    34    35   ar
    33    35    36   ar
    34    36    37    1
    35    37    40    1
    36    40    41   ar
    37    41    42   ar
    38    42    43   ar
    39    43    44   ar
    40    44    45   ar
    41    37    38    1
    42    38    39    1
    43    22    16   ar
    44    36    28   ar
    45    39    37    1
    46    35    30   ar
    47    45    40   ar
    48     8     9    1
    49     3     4    1
@<TRIPOS>MOLECULE
*****
 45 49 0 0 0
SMALL
GASTEIGER

@<TRIPOS>ATOM
      1 C          63.5266   87.0762   13.5872 C.2     1  UNL1        0.2411
      2 O          64.1300   86.8166   14.9357 O.2     1  UNL1       -0.2733
      3 N          63.4816   88.4728   13.0419 N.am    1  UNL1       -0.2966
      4 H          63.0855   88.6432   12.1568 H       1  UNL1        0.1499
      5 C          62.9681   85.9391   12.7839 C.3     1  UNL1        0.1554
      6 C          61.4637   86.9460   10.9203 C.2     1  UNL1        0.4017
      7 O          62.6448   87.6870   10.3672 O.2     1  UNL1       -0.2264
      8 N          61.6253   86.0720   12.1287 N.am    1  UNL1       -0.2637
      9 H          60.8501   85.5857   12.4917 H       1  UNL1        0.1532
     10 O          60.1210   87.0790   10.2651 O.3     1  UNL1       -0.4419
     11 C          59.9235   89.1019    9.6579 C.3     1  UNL1        0.0437
     12 C          59.9963   87.7833    8.9466 C.3     1  UNL1        0.1378
     13 C          60.0691   86.4647    8.2354 C.3     1  UNL1        0.0437
     14 C          59.8716   88.4877    7.6281 C.3     1  UNL1        0.0437
     15 C          63.7523   84.6690   12.6360 C.3     1  UNL1        0.0554
     16 C          63.1181   83.3523   12.9735 C.ar    1  UNL1       -0.0139
     17 C          62.3540   83.1943   14.2546 C.ar    1  UNL1       -0.0041
     18 C          61.7199   81.8776   14.5922 C.ar    1  UNL1        0.0020
     19 C          61.8498   80.7188   13.6486 C.ar    1  UNL1        0.0296
     20 C          62.6138   80.8767   12.3675 C.ar    1  UNL1        0.1437
     21 F          62.7437   79.7179   11.4240 F       1  UNL1       -0.2042
     22 C          63.2480   82.1934   12.0300 C.ar    1  UNL1        0.0949
     23 C          64.0121   82.3514   10.7489 C.3     1  UNL1        0.4204
     24 F          64.7763   82.5094    9.4678 F       1  UNL1       -0.1658
     25 F          65.2649   81.9023   11.4408 F       1  UNL1       -0.1658
     26 F          62.7593   82.8005   10.0570 F       1  UNL1       -0.1658
     27 C          64.0401   89.6099   13.8450 C.3     1  UNL1        0.1543
     28 C          64.5267   90.8488   13.1534 C.ar    1  UNL1        0.1417
     29 N          64.4270   91.1354   11.6844 N.ar    1  UNL1       -0.2276
     30 C          65.0371   92.4824   11.4325 C.ar    1  UNL1        0.1167
     31 C          65.2201   93.2823   10.1769 C.ar    1  UNL1        0.0238
     32 C          65.8800   94.6282   10.2346 C.ar    1  UNL1        0.0223
     33 C          66.3568   95.1740   11.5479 C.ar    1  UNL1        0.1006
     34 N          66.1738   94.3740   12.8034 N.ar    1  UNL1       -0.2252
     35 C          65.5140   93.0282   12.7457 C.ar    1  UNL1        0.1626
     36 N          65.1985   92.0186   13.8093 N.ar    1  UNL1       -0.2990
     37 C          65.5016   92.1549   15.2720 C.3     1  UNL1        0.0898
     38 C          65.2929   92.1969   16.7568 C.3     1  UNL1        0.0273
     39 C          64.1330   91.9306   15.8437 C.3     1  UNL1        0.0273
     40 C          66.9754   92.4266   15.2084 C.ar    1  UNL1       -0.0037
     41 C          67.8428   91.6421   14.2692 C.ar    1  UNL1       -0.0025
     42 C          69.3166   91.9137   14.2056 C.ar    1  UNL1       -0.0003
     43 C          69.9230   92.9700   15.0812 C.ar    1  UNL1       -0.0000
     44 C          69.0556   93.7545   16.0204 C.ar    1  UNL1       -0.0003
     45 C          67.5818   93.4828   16.0841 C.ar    1  UNL1       -0.0025
@<TRIPOS>BOND
     1    11    12    1
     2    12    13    1
     3    12    14    1
     4    12    10    1
     5    10     6    1
     6     6     7    2
     7     6     8   am
     8     8     5    1
     9     5    15    1
    10    15    16    1
    11    16    17   ar
    12    17    18   ar
    13    18    19   ar
    14    19    20   ar
    15    20    21    1
    16    20    22   ar
    17    22    23    1
    18    23    24    1
    19    23    25    1
    20    23    26    1
    21     5     1    1
    22     1     2    2
    23     1     3   am
    24     3    27    1
    25    27    28    1
    26    28    29   ar
    27    29    30   ar
    28    30    31   ar
    29    31    32   ar
    30    32    33   ar
    31    33    34   ar
    32    34    35   ar
    33    35    36   ar
    34    36    37    1
    35    37    40    1
    36    40    41   ar
    37    41    42   ar
    38    42    43   ar
    39    43    44   ar
    40    44    45   ar
    41    37    38    1
    42    38    39    1
    43    22    16   ar
    44    36    28   ar
    45    39    37    1
    46    35    30   ar
    47    45    40   ar
    48     8     9    1
    49     3     4    1
@<TRIPOS>MOLECULE
*****
 45 49 0 0 0
SMALL
GASTEIGER

@<TRIPOS>ATOM
      1 C          62.8975   89.4615   11.5041 C.2     1  UNL1        0.2411
      2 O          62.4002   89.9828   12.8198 O.2     1  UNL1       -0.2733
      3 N          63.7030   90.3488   10.6020 N.am    1  UNL1       -0.2966
      4 H          64.0294   90.0067    9.7385 H       1  UNL1        0.1499
      5 C          62.5893   88.0529   11.0906 C.3     1  UNL1        0.1554
      6 C          62.5509   85.6588   12.0990 C.2     1  UNL1        0.4017
      7 O          63.5763   85.2199   11.0960 O.2     1  UNL1       -0.2264
      8 N          62.0574   87.0754   12.0962 N.am    1  UNL1       -0.2637
      9 H          61.3844   87.3634   12.7545 H       1  UNL1        0.1532
     10 O          62.0190   84.6813   13.1046 O.3     1  UNL1       -0.4419
     11 C          62.4386   82.6061   12.9718 C.3     1  UNL1        0.0437
     12 C          62.9552   83.7415   13.8048 C.3     1  UNL1        0.1378
     13 C          63.4719   84.8769   14.6379 C.3     1  UNL1        0.0437
     14 C          63.8915   82.8016   14.5050 C.3     1  UNL1        0.0437
     15 C          62.8130   87.6220    9.6713 C.3     1  UNL1        0.0554
     16 C          61.6669   87.0996    8.8566 C.ar    1  UNL1       -0.0139
     17 C          61.7838   85.7765    8.1597 C.ar    1  UNL1       -0.0041
     18 C          60.6377   85.2541    7.3451 C.ar    1  UNL1        0.0020
     19 C          59.3748   86.0548    7.2274 C.ar    1  UNL1        0.0296
     20 C          59.2579   87.3779    7.9243 C.ar    1  UNL1        0.1437
     21 F          57.9950   88.1786    7.8066 F       1  UNL1       -0.2042
     22 C          60.4039   87.9003    8.7389 C.ar    1  UNL1        0.0949
     23 C          60.2871   89.2234    9.4359 C.3     1  UNL1        0.4204
     24 F          60.1702   90.5465   10.1329 F       1  UNL1       -0.1658
     25 F          59.6469   88.5473   10.6120 F       1  UNL1       -0.1658
     26 F          60.9272   89.8995    8.2599 F       1  UNL1       -0.1658
     27 C          64.0112   91.7573   11.0155 C.3     1  UNL1        0.1543
     28 C          64.9440   92.0155   12.1614 C.ar    1  UNL1        0.1417
     29 N          64.6018   91.9094   13.6180 N.ar    1  UNL1       -0.2276
     30 C          65.8291   92.2534   14.4089 C.ar    1  UNL1        0.1167
     31 C          66.0864   92.3177   15.8852 C.ar    1  UNL1        0.0238
     32 C          67.4446   92.7006   16.3937 C.ar    1  UNL1        0.0223
     33 C          68.5454   93.0193   15.4259 C.ar    1  UNL1        0.1006
     34 N          68.2880   92.9551   13.9496 N.ar    1  UNL1       -0.2252
     35 C          66.9298   92.5722   13.4410 C.ar    1  UNL1        0.1626
     36 N          66.3829   92.4251   12.0521 N.ar    1  UNL1       -0.2990
     37 C          67.1416   92.6485   10.7775 C.3     1  UNL1        0.0898
     38 C          68.0492   92.3848    9.6128 C.3     1  UNL1        0.0273
     39 C          67.8338   91.3237   10.6509 C.3     1  UNL1        0.0273
     40 C          66.7128   94.0507   10.4615 C.ar    1  UNL1       -0.0037
     41 C          66.8456   94.5785    9.0638 C.ar    1  UNL1       -0.0025
     42 C          66.4169   95.9808    8.7477 C.ar    1  UNL1       -0.0003
     43 C          65.8554   96.8552    9.8294 C.ar    1  UNL1       -0.0000
     44 C          65.7226   96.3273   11.2272 C.ar    1  UNL1       -0.0003
     45 C          66.1514   94.9251   11.5433 C.ar    1  UNL1       -0.0025
@<TRIPOS>BOND
     1    11    12    1
     2    12    13    1
     3    12    14    1
     4    12    10    1
     5    10     6    1
     6     6     7    2
     7     6     8   am
     8     8     5    1
     9     5    15    1
    10    15    16    1
    11    16    17   ar
    12    17    18   ar
    13    18    19   ar
    14    19    20   ar
    15    20    21    1
    16    20    22   ar
    17    22    23    1
    18    23    24    1
    19    23    25    1
    20    23    26    1
    21     5     1    1
    22     1     2    2
    23     1     3   am
    24     3    27    1
    25    27    28    1
    26    28    29   ar
    27    29    30   ar
    28    30    31   ar
    29    31    32   ar
    30    32    33   ar
    31    33    34   ar
    32    34    35   ar
    33    35    36   ar
    34    36    37    1
    35    37    40    1
    36    40    41   ar
    37    41    42   ar
    38    42    43   ar
    39    43    44   ar
    40    44    45   ar
    41    37    38    1
    42    38    39    1
    43    22    16   ar
    44    36    28   ar
    45    39    37    1
    46    35    30   ar
    47    45    40   ar
    48     8     9    1
    49     3     4    1
@<TRIPOS>MOLECULE
*****
 45 49 0 0 0
SMALL
GASTEIGER

@<TRIPOS>ATOM
      1 C          64.2105   91.2355   12.7215 C.2     1  UNL1        0.2411
      2 O          63.8809   91.1442   14.1820 O.2     1  UNL1       -0.2733
      3 N          63.4370   90.4229   11.7259 N.am    1  UNL1       -0.2966
      4 H          63.6533   90.4829   10.7673 H       1  UNL1        0.1499
      5 C          65.3137   92.1394   12.2567 C.3     1  UNL1        0.1554
      6 C          66.9076   93.4906   13.8007 C.2     1  UNL1        0.4017
      7 O          65.9556   94.6494   13.7693 O.2     1  UNL1       -0.2264
      8 N          66.5866   92.2356   13.0444 N.am    1  UNL1       -0.2637
      9 H          67.2114   91.4750   13.0650 H       1  UNL1        0.1532
     10 O          68.1805   93.5868   14.5884 O.3     1  UNL1       -0.4419
     11 C          69.8391   92.4274   15.2245 C.3     1  UNL1        0.0437
     12 C          68.4375   92.6335   15.7175 C.3     1  UNL1        0.1378
     13 C          67.0360   92.8395   16.2105 C.3     1  UNL1        0.0437
     14 C          68.6946   91.6801   16.8467 C.3     1  UNL1        0.0437
     15 C          65.1439   92.9471   11.0042 C.3     1  UNL1        0.0554
     16 C          66.3396   93.2935   10.1673 C.ar    1  UNL1       -0.0139
     17 C          67.3077   92.2216    9.7626 C.ar    1  UNL1       -0.0041
     18 C          68.5034   92.5680    8.9257 C.ar    1  UNL1        0.0020
     19 C          68.7309   93.9862    8.4935 C.ar    1  UNL1        0.0296
     20 C          67.7628   95.0581    8.8982 C.ar    1  UNL1        0.1437
     21 F          67.9904   96.4764    8.4661 F       1  UNL1       -0.2042
     22 C          66.5672   94.7117    9.7351 C.ar    1  UNL1        0.0949
     23 C          65.5990   95.7836   10.1398 C.3     1  UNL1        0.4204
     24 F          64.6309   96.8555   10.5445 F       1  UNL1       -0.1658
     25 F          65.0098   95.7722    8.7605 F       1  UNL1       -0.1658
     26 F          66.1882   95.7950   11.5192 F       1  UNL1       -0.1658
     27 C          62.3338   89.5191   12.1906 C.3     1  UNL1        0.1543
     28 C          62.5523   88.0361   12.2458 C.ar    1  UNL1        0.1417
     29 N          63.5190   87.3201   13.1419 N.ar    1  UNL1       -0.2276
     30 C          63.4066   85.8502   12.8645 C.ar    1  UNL1        0.1167
     31 C          64.1139   84.6622   13.4461 C.ar    1  UNL1        0.0238
     32 C          63.7851   83.2817   12.9601 C.ar    1  UNL1        0.0223
     33 C          62.7490   83.0893   11.8926 C.ar    1  UNL1        0.1006
     34 N          62.0418   84.2774   11.3111 N.ar    1  UNL1       -0.2252
     35 C          62.3706   85.6578   11.7970 C.ar    1  UNL1        0.1626
     36 N          61.8426   87.0088   11.4147 N.ar    1  UNL1       -0.2990
     37 C          60.7897   87.2840   10.3824 C.3     1  UNL1        0.0898
     38 C          59.5469   87.8354    9.7489 C.3     1  UNL1        0.0273
     39 C          59.8770   88.1748   11.1722 C.3     1  UNL1        0.0273
     40 C          61.3366   86.4889    9.2340 C.ar    1  UNL1       -0.0037
     41 C          62.8030   86.1808    9.1662 C.ar    1  UNL1       -0.0025
     42 C          63.3500   85.3856    8.0179 C.ar    1  UNL1       -0.0003
     43 C          62.4304   84.8988    6.9374 C.ar    1  UNL1       -0.0000
     44 C          60.9640   85.2070    7.0052 C.ar    1  UNL1       -0.0003
     45 C          60.4171   86.0021    8.1536 C.ar    1  UNL1       -0.0025
@<TRIPOS>BOND
     1    11    12    1
     2    12    13    1
     3    12    14    1
     4    12    10    1
     5    10     6    1
     6     6     7    2
     7     6     8   am
     8     8     5    1
     9     5    15    1
    10    15    16    1
    11    16    17   ar
    12    17    18   ar
    13    18    19   ar
    14    19    20   ar
    15    20    21    1
    16    20    22   ar
    17    22    23    1
    18    23    24    1
    19    23    25    1
    20    23    26    1
    21     5     1    1
    22     1     2    2
    23     1     3   am
    24     3    27    1
    25    27    28    1
    26    28    29   ar
    27    29    30   ar
    28    30    31   ar
    29    31    32   ar
    30    32    33   ar
    31    33    34   ar
    32    34    35   ar
    33    35    36   ar
    34    36    37    1
    35    37    40    1
    36    40    41   ar
    37    41    42   ar
    38    42    43   ar
    39    43    44   ar
    40    44    45   ar
    41    37    38    1
    42    38    39    1
    43    22    16   ar
    44    36    28   ar
    45    39    37    1
    46    35    30   ar
    47    45    40   ar
    48     8     9    1
    49     3     4    1
@<TRIPOS>MOLECULE
*****
 45 49 0 0 0
SMALL
GASTEIGER

@<TRIPOS>ATOM
      1 C          63.9706   91.5404   11.1016 C.2     1  UNL1        0.2411
      2 O          63.4739   91.6016    9.6876 O.2     1  UNL1       -0.2733
      3 N          63.4242   90.5098   12.0446 N.am    1  UNL1       -0.2966
      4 H          63.7503   90.4697   12.9727 H       1  UNL1        0.1499
      5 C          65.0139   92.5099   11.5726 C.3     1  UNL1        0.1554
      6 C          66.1869   94.7681   11.0486 C.2     1  UNL1        0.4017
      7 O          66.0346   95.1800   12.4829 O.2     1  UNL1       -0.2264
      8 N          65.6765   93.4330   10.5935 N.am    1  UNL1       -0.2637
      9 H          65.7765   93.1626    9.6521 H       1  UNL1        0.1532
     10 O          66.8495   95.6912   10.0695 O.3     1  UNL1       -0.4419
     11 C          65.0824   96.8542    9.9130 C.3     1  UNL1        0.0437
     12 C          66.0598   96.2731    8.9347 C.3     1  UNL1        0.1378
     13 C          67.0372   95.6921    7.9565 C.3     1  UNL1        0.0437
     14 C          65.2700   96.8551    7.8000 C.3     1  UNL1        0.0437
     15 C          65.3945   92.5562   13.0228 C.3     1  UNL1        0.0554
     16 C          66.8078   92.2707   13.4367 C.ar    1  UNL1       -0.0139
     17 C          67.8630   92.0436   12.3952 C.ar    1  UNL1       -0.0041
     18 C          69.2762   91.7581   12.8092 C.ar    1  UNL1        0.0020
     19 C          69.6341   91.6998   14.2648 C.ar    1  UNL1        0.0296
     20 C          68.5788   91.9269   15.3063 C.ar    1  UNL1        0.1437
     21 F          68.9367   91.8686   16.7618 F       1  UNL1       -0.2042
     22 C          67.1657   92.2124   14.8923 C.ar    1  UNL1        0.0949
     23 C          66.1103   92.4395   15.9338 C.3     1  UNL1        0.4204
     24 F          65.0550   92.6665   16.9752 F       1  UNL1       -0.1658
     25 F          65.3670   91.2322   15.4438 F       1  UNL1       -0.1658
     26 F          66.8536   93.6467   16.4237 F       1  UNL1       -0.1658
     27 C          62.3810   89.5404   11.5736 C.3     1  UNL1        0.1543
     28 C          62.5535   88.0718   11.8257 C.ar    1  UNL1        0.1417
     29 N          63.5010   87.4514   12.8092 N.ar    1  UNL1       -0.2276
     30 C          63.3419   85.9619   12.7298 C.ar    1  UNL1        0.1167
     31 C          64.0143   84.8402   13.4644 C.ar    1  UNL1        0.0238
     32 C          63.6407   83.4183   13.1664 C.ar    1  UNL1        0.0223
     33 C          62.5949   83.1183   12.1338 C.ar    1  UNL1        0.1006
     34 N          61.9226   84.2400   11.3993 N.ar    1  UNL1       -0.2252
     35 C          62.2961   85.6618   11.6973 C.ar    1  UNL1        0.1626
     36 N          61.8088   86.9658   11.1385 N.ar    1  UNL1       -0.2990
     37 C          60.7608   87.1342   10.0786 C.3     1  UNL1        0.0898
     38 C          59.5009   87.5857    9.4013 C.3     1  UNL1        0.0273
     39 C          59.7865   88.0077   10.8121 C.3     1  UNL1        0.0273
     40 C          61.3711   86.3193    8.9771 C.ar    1  UNL1       -0.0037
     41 C          62.8413   86.0222    8.9902 C.ar    1  UNL1       -0.0025
     42 C          63.4516   85.2072    7.8886 C.ar    1  UNL1       -0.0003
     43 C          62.5916   84.6895    6.7739 C.ar    1  UNL1       -0.0000
     44 C          61.1214   84.9867    6.7608 C.ar    1  UNL1       -0.0003
     45 C          60.5111   85.8016    7.8624 C.ar    1  UNL1       -0.0025
@<TRIPOS>BOND
     1    11    12    1
     2    12    13    1
     3    12    14    1
     4    12    10    1
     5    10     6    1
     6     6     7    2
     7     6     8   am
     8     8     5    1
     9     5    15    1
    10    15    16    1
    11    16    17   ar
    12    17    18   ar
    13    18    19   ar
    14    19    20   ar
    15    20    21    1
    16    20    22   ar
    17    22    23    1
    18    23    24    1
    19    23    25    1
    20    23    26    1
    21     5     1    1
    22     1     2    2
    23     1     3   am
    24     3    27    1
    25    27    28    1
    26    28    29   ar
    27    29    30   ar
    28    30    31   ar
    29    31    32   ar
    30    32    33   ar
    31    33    34   ar
    32    34    35   ar
    33    35    36   ar
    34    36    37    1
    35    37    40    1
    36    40    41   ar
    37    41    42   ar
    38    42    43   ar
    39    43    44   ar
    40    44    45   ar
    41    37    38    1
    42    38    39    1
    43    22    16   ar
    44    36    28   ar
    45    39    37    1
    46    35    30   ar
    47    45    40   ar
    48     8     9    1
    49     3     4    1
@<TRIPOS>MOLECULE
*****
 45 49 0 0 0
SMALL
GASTEIGER

@<TRIPOS>ATOM
      1 C          63.1629   87.3235   12.3704 C.2     1  UNL1        0.2411
      2 O          63.6322   86.8418   13.7112 O.2     1  UNL1       -0.2733
      3 N          63.2015   88.7869   12.0435 N.am    1  UNL1       -0.2966
      4 H          62.8935   89.1030   11.1635 H       1  UNL1        0.1499
      5 C          62.6550   86.3417   11.3563 C.3     1  UNL1        0.1554
      6 C          62.6871   83.7921   11.8550 C.2     1  UNL1        0.4017
      7 O          64.1314   83.7320   11.4549 O.2     1  UNL1       -0.2264
      8 N          61.9488   85.0970   11.8057 N.am    1  UNL1       -0.2637
      9 H          61.0008   85.1364   12.0684 H       1  UNL1        0.1532
     10 O          61.9809   82.5474   12.3044 O.3     1  UNL1       -0.4419
     11 C          62.7733   80.5957   12.0540 C.3     1  UNL1        0.0437
     12 C          62.6842   81.5659   13.1944 C.3     1  UNL1        0.1378
     13 C          62.5950   82.5362   14.3348 C.3     1  UNL1        0.0437
     14 C          63.3875   80.5844   14.0844 C.3     1  UNL1        0.0437
     15 C          62.8533   86.6046    9.8930 C.3     1  UNL1        0.0554
     16 C          61.7162   86.4074    8.9347 C.ar    1  UNL1       -0.0139
     17 C          61.7384   85.2583    7.9709 C.ar    1  UNL1       -0.0041
     18 C          60.6013   85.0611    7.0127 C.ar    1  UNL1        0.0020
     19 C          59.4421   86.0130    7.0182 C.ar    1  UNL1        0.0296
     20 C          59.4200   87.1622    7.9820 C.ar    1  UNL1        0.1437
     21 F          58.2608   88.1141    7.9876 F       1  UNL1       -0.2042
     22 C          60.5570   87.3593    8.9403 C.ar    1  UNL1        0.0949
     23 C          60.5349   88.5085    9.9041 C.3     1  UNL1        0.4204
     24 F          60.5128   89.6577   10.8679 F       1  UNL1       -0.1658
     25 F          61.2957   89.3478    8.9209 F       1  UNL1       -0.1658
     26 F          59.7741   87.6693   10.8873 F       1  UNL1       -0.1658
     27 C          63.7094   89.7687   13.0574 C.3     1  UNL1        0.1543
     28 C          64.3256   91.0602   12.6077 C.ar    1  UNL1        0.1417
     29 N          64.3440   91.5864   11.2032 N.ar    1  UNL1       -0.2276
     30 C          65.0614   92.9037   11.2110 C.ar    1  UNL1        0.1167
     31 C          65.3825   93.8782   10.1168 C.ar    1  UNL1        0.0238
     32 C          66.1287   95.1406   10.4321 C.ar    1  UNL1        0.0223
     33 C          66.5538   95.4286   11.8415 C.ar    1  UNL1        0.1006
     34 N          66.2326   94.4541   12.9356 N.ar    1  UNL1       -0.2252
     35 C          65.4864   93.1917   12.6204 C.ar    1  UNL1        0.1626
     36 N          65.0317   92.0523   13.4836 N.ar    1  UNL1       -0.2990
     37 C          65.2455   91.9271   14.9630 C.3     1  UNL1        0.0898
     38 C          64.9503   91.6942   16.4151 C.3     1  UNL1        0.0273
     39 C          63.8542   91.5736   15.3983 C.3     1  UNL1        0.0273
     40 C          66.7110   92.2371   15.0415 C.ar    1  UNL1       -0.0037
     41 C          67.2270   93.1560   16.1089 C.ar    1  UNL1       -0.0025
     42 C          68.6926   93.4660   16.1875 C.ar    1  UNL1       -0.0003
     43 C          69.6420   92.8571   15.1986 C.ar    1  UNL1       -0.0000
     44 C          69.1259   91.9382   14.1313 C.ar    1  UNL1       -0.0003
     45 C          67.6604   91.6282   14.0527 C.ar    1  UNL1       -0.0025
@<TRIPOS>BOND
     1    11    12    1
     2    12    13    1
     3    12    14    1
     4    12    10    1
     5    10     6    1
     6     6     7    2
     7     6     8   am
     8     8     5    1
     9     5    15    1
    10    15    16    1
    11    16    17   ar
    12    17    18   ar
    13    18    19   ar
    14    19    20   ar
    15    20    21    1
    16    20    22   ar
    17    22    23    1
    18    23    24    1
    19    23    25    1
    20    23    26    1
    21     5     1    1
    22     1     2    2
    23     1     3   am
    24     3    27    1
    25    27    28    1
    26    28    29   ar
    27    29    30   ar
    28    30    31   ar
    29    31    32   ar
    30    32    33   ar
    31    33    34   ar
    32    34    35   ar
    33    35    36   ar
    34    36    37    1
    35    37    40    1
    36    40    41   ar
    37    41    42   ar
    38    42    43   ar
    39    43    44   ar
    40    44    45   ar
    41    37    38    1
    42    38    39    1
    43    22    16   ar
    44    36    28   ar
    45    39    37    1
    46    35    30   ar
    47    45    40   ar
    48     8     9    1
    49     3     4    1
