@<TRIPOS>MOLECULE
*****
 32 36 0 0 0
SMALL
GASTEIGER

@<TRIPOS>ATOM
      1 C          64.1690   88.0199   14.5180 C.ar    1  UNL1        0.1014
      2 C          64.0870   87.5580   15.9427 C.ar    1  UNL1        0.0240
      3 C          63.6254   86.1652   16.2542 C.ar    1  UNL1        0.0404
      4 C          63.2458   85.2343   15.1409 C.ar    1  UNL1        0.1639
      5 N          62.7585   83.8156   15.1409 N.ar    1  UNL1       -0.2234
      6 C          62.5393   83.4008   13.7162 C.ar    1  UNL1        0.1197
      7 C          62.8912   84.5631   12.8357 C.ar    1  UNL1        0.1035
      8 N          63.3278   85.6963   13.7162 N.ar    1  UNL1       -0.2107
      9 N          63.7894   87.0890   13.4047 N.ar    1  UNL1       -0.1638
     10 C          65.5540   92.1983   13.5836 C.ar    1  UNL1        0.0536
     11 C          66.2604   91.3908   14.6319 C.ar    1  UNL1        0.0046
     12 C          65.7988   89.9980   14.9433 C.ar    1  UNL1        0.0017
     13 C          64.6307   89.4127   14.2065 C.ar    1  UNL1        0.0194
     14 C          63.9242   90.2202   13.1583 C.ar    1  UNL1        0.0017
     15 C          64.3858   91.6130   12.8468 C.ar    1  UNL1        0.0046
     16 C          67.0914   95.1950    7.5915 C.3     1  UNL1        0.0897
     17 N          66.8225   94.7940    9.0116 N.3     1  UNL1       -0.2686
     18 C          66.3608   93.4013    9.3231 C.3     1  UNL1        0.0939
     19 C          66.0919   93.0002   10.7433 C.3     1  UNL1        0.1110
     20 N          66.2846   93.9920   11.8520 N.am    1  UNL1       -0.2732
     21 C          66.0156   93.5911   13.2721 C.2     1  UNL1        0.2491
     22 O          66.2083   94.5829   14.3808 O.2     1  UNL1       -0.2699
     23 C          66.7462   95.3849   11.5405 C.3     1  UNL1        0.1110
     24 C          67.0152   95.7858   10.1203 C.3     1  UNL1        0.0939
     25 C          62.8191   84.5879   11.3376 C.ar    1  UNL1        0.0193
     26 C          61.8988   85.5502   10.6468 C.ar    1  UNL1        0.0022
     27 C          61.8267   85.5750    9.1488 C.ar    1  UNL1        0.0103
     28 C          62.6748   84.6375    8.3414 C.ar    1  UNL1        0.0684
     29 C          63.5951   83.6752    9.0322 C.ar    1  UNL1        0.0103
     30 C          63.6672   83.6504   10.5303 C.ar    1  UNL1        0.0022
     31 C          62.6027   84.6623    6.8434 C.1     1  UNL1        0.1004
     32 N          62.5306   84.6871    5.3453 N.1     1  UNL1       -0.1908
@<TRIPOS>BOND
     1    16    17    1
     2    17    18    1
     3    18    19    1
     4    19    20    1
     5    20    21   am
     6    21    22    2
     7    21    10    1
     8    10    11   ar
     9    11    12   ar
    10    12    13   ar
    11    13     1    1
    12     1     2   ar
    13     2     3   ar
    14     3     4   ar
    15     4     5   ar
    16     5     6   ar
    17     6     7   ar
    18     7    25    1
    19    25    26   ar
    20    26    27   ar
    21    27    28   ar
    22    28    31    1
    23    31    32    3
    24    28    29   ar
    25    29    30   ar
    26     7     8   ar
    27     8     9   ar
    28    13    14   ar
    29    14    15   ar
    30    20    23    1
    31    23    24    1
    32    24    17    1
    33    15    10   ar
    34     9     1   ar
    35     8     4   ar
    36    30    25   ar
@<TRIPOS>MOLECULE
*****
 32 36 0 0 0
SMALL
GASTEIGER

@<TRIPOS>ATOM
      1 C          61.7409   86.4843   10.1819 C.ar    1  UNL1        0.1014
      2 C          61.9047   85.0242    9.8802 C.ar    1  UNL1        0.0240
      3 C          62.6537   84.1408   10.8334 C.ar    1  UNL1        0.0404
      4 C          63.2388   84.7176   12.0884 C.ar    1  UNL1        0.1639
      5 N          64.0220   84.0980   13.2077 N.ar    1  UNL1       -0.2234
      6 C          64.3422   85.1752   14.2011 C.ar    1  UNL1        0.1197
      7 C          63.7569   86.4606   13.6959 C.ar    1  UNL1        0.1035
      8 N          63.0750   86.1777   12.3901 N.ar    1  UNL1       -0.2107
      9 N          62.3260   87.0611   11.4369 N.ar    1  UNL1       -0.1638
     10 C          59.4939   89.1345    7.3222 C.ar    1  UNL1        0.0536
     11 C          59.4829   87.6466    7.1323 C.ar    1  UNL1        0.0046
     12 C          60.2319   86.7632    8.0855 C.ar    1  UNL1        0.0017
     13 C          60.9919   87.3677    9.2287 C.ar    1  UNL1        0.0194
     14 C          61.0030   88.8556    9.4187 C.ar    1  UNL1        0.0017
     15 C          60.2540   89.7390    8.4654 C.ar    1  UNL1        0.0046
     16 C          61.7229   93.1274    2.1901 C.3     1  UNL1        0.0897
     17 N          60.9784   92.3500    3.2348 N.3     1  UNL1       -0.2686
     18 C          61.7274   91.4667    4.1881 C.3     1  UNL1        0.0939
     19 C          60.9829   90.6892    5.2328 C.3     1  UNL1        0.1110
     20 N          59.4894   90.7952    5.3243 N.am    1  UNL1       -0.2732
     21 C          58.7450   90.0179    6.3690 C.2     1  UNL1        0.2491
     22 O          57.2515   90.1239    6.4604 O.2     1  UNL1       -0.2699
     23 C          58.7405   91.6786    4.3710 C.3     1  UNL1        0.1110
     24 C          59.4850   92.4560    3.3263 C.3     1  UNL1        0.0939
     25 C          63.8391   87.7946   14.3768 C.ar    1  UNL1        0.0193
     26 C          64.3183   88.9960   13.6173 C.ar    1  UNL1        0.0022
     27 C          64.4005   90.3301   14.2982 C.ar    1  UNL1        0.0103
     28 C          64.0035   90.4627   15.7386 C.ar    1  UNL1        0.0684
     29 C          63.5242   89.2612   16.4981 C.ar    1  UNL1        0.0103
     30 C          63.4420   87.9272   15.8171 C.ar    1  UNL1        0.0022
     31 C          64.0856   91.7967   16.4195 C.1     1  UNL1        0.1004
     32 N          64.1678   93.1307   17.1004 N.1     1  UNL1       -0.1908
@<TRIPOS>BOND
     1    16    17    1
     2    17    18    1
     3    18    19    1
     4    19    20    1
     5    20    21   am
     6    21    22    2
     7    21    10    1
     8    10    11   ar
     9    11    12   ar
    10    12    13   ar
    11    13     1    1
    12     1     2   ar
    13     2     3   ar
    14     3     4   ar
    15     4     5   ar
    16     5     6   ar
    17     6     7   ar
    18     7    25    1
    19    25    26   ar
    20    26    27   ar
    21    27    28   ar
    22    28    31    1
    23    31    32    3
    24    28    29   ar
    25    29    30   ar
    26     7     8   ar
    27     8     9   ar
    28    13    14   ar
    29    14    15   ar
    30    20    23    1
    31    23    24    1
    32    24    17    1
    33    15    10   ar
    34     9     1   ar
    35     8     4   ar
    36    30    25   ar
@<TRIPOS>MOLECULE
*****
 32 36 0 0 0
SMALL
GASTEIGER

@<TRIPOS>ATOM
      1 C          59.9068   89.5186    6.9183 C.ar    1  UNL1        0.1014
      2 C          58.9946   88.3279    6.9074 C.ar    1  UNL1        0.0240
      3 C          58.9616   87.3977    8.0837 C.ar    1  UNL1        0.0404
      4 C          59.8407   87.6582    9.2708 C.ar    1  UNL1        0.1639
      5 N          60.0234   86.9225   10.5652 N.ar    1  UNL1       -0.2234
      6 C          61.0485   87.6585   11.3760 C.ar    1  UNL1        0.1197
      7 C          61.4993   88.8491   10.5828 C.ar    1  UNL1        0.1035
      8 N          60.7529   88.8489    9.2817 N.ar    1  UNL1       -0.2107
      9 N          60.7859   89.7791    8.1054 N.ar    1  UNL1       -0.1638
     10 C          60.0060   92.3093    3.3894 C.ar    1  UNL1        0.0536
     11 C          61.2599   91.6150    3.8321 C.ar    1  UNL1        0.0046
     12 C          61.2268   90.6848    5.0084 C.ar    1  UNL1        0.0017
     13 C          59.9399   90.4488    5.7420 C.ar    1  UNL1        0.0194
     14 C          58.6861   91.1431    5.2994 C.ar    1  UNL1        0.0017
     15 C          58.7191   92.0733    4.1231 C.ar    1  UNL1        0.0046
     16 C          65.2981   95.1464    0.0438 C.3     1  UNL1        0.0897
     17 N          63.9834   94.6697    0.5861 N.3     1  UNL1       -0.2686
     18 C          63.9503   93.7395    1.7624 C.3     1  UNL1        0.0939
     19 C          62.6355   93.2627    2.3048 C.3     1  UNL1        0.1110
     20 N          61.3539   93.7162    1.6709 N.am    1  UNL1       -0.2732
     21 C          60.0391   93.2395    2.2132 C.2     1  UNL1        0.2491
     22 O          58.7575   93.6929    1.5793 O.2     1  UNL1       -0.2699
     23 C          61.3870   94.6464    0.4946 C.3     1  UNL1        0.1110
     24 C          62.7018   95.1232   -0.0478 C.3     1  UNL1        0.0939
     25 C          62.5178   89.8621   11.0147 C.ar    1  UNL1        0.0193
     26 C          63.0463   89.8427   12.4184 C.ar    1  UNL1        0.0022
     27 C          64.0648   90.8557   12.8504 C.ar    1  UNL1        0.0103
     28 C          64.5548   91.8881   11.8787 C.ar    1  UNL1        0.0684
     29 C          64.0262   91.9075   10.4751 C.ar    1  UNL1        0.0103
     30 C          63.0078   90.8945   10.0431 C.ar    1  UNL1        0.0022
     31 C          65.5732   92.9011   12.3107 C.1     1  UNL1        0.1004
     32 N          66.5917   93.9140   12.7426 N.1     1  UNL1       -0.1908
@<TRIPOS>BOND
     1    16    17    1
     2    17    18    1
     3    18    19    1
     4    19    20    1
     5    20    21   am
     6    21    22    2
     7    21    10    1
     8    10    11   ar
     9    11    12   ar
    10    12    13   ar
    11    13     1    1
    12     1     2   ar
    13     2     3   ar
    14     3     4   ar
    15     4     5   ar
    16     5     6   ar
    17     6     7   ar
    18     7    25    1
    19    25    26   ar
    20    26    27   ar
    21    27    28   ar
    22    28    31    1
    23    31    32    3
    24    28    29   ar
    25    29    30   ar
    26     7     8   ar
    27     8     9   ar
    28    13    14   ar
    29    14    15   ar
    30    20    23    1
    31    23    24    1
    32    24    17    1
    33    15    10   ar
    34     9     1   ar
    35     8     4   ar
    36    30    25   ar
@<TRIPOS>MOLECULE
*****
 32 36 0 0 0
SMALL
GASTEIGER

@<TRIPOS>ATOM
      1 C          61.8697   89.5925   10.3576 C.ar    1  UNL1        0.1014
      2 C          61.5055   88.3448   11.1063 C.ar    1  UNL1        0.0240
      3 C          60.5075   87.3867   10.5266 C.ar    1  UNL1        0.0404
      4 C          59.8739   87.6762    9.1982 C.ar    1  UNL1        0.1639
      5 N          58.8653   86.9235    8.3819 N.ar    1  UNL1       -0.2234
      6 C          58.6063   87.7059    7.1287 C.ar    1  UNL1        0.1197
      7 C          59.4548   88.9422    7.1705 C.ar    1  UNL1        0.1035
      8 N          60.2381   88.9239    8.4495 N.ar    1  UNL1       -0.2107
      9 N          61.2361   89.8820    9.0292 N.ar    1  UNL1       -0.1638
     10 C          64.8637   92.4671   12.0964 C.ar    1  UNL1        0.0536
     11 C          64.5998   92.4609   10.6198 C.ar    1  UNL1        0.0046
     12 C          63.6019   91.5027   10.0402 C.ar    1  UNL1        0.0017
     13 C          62.8677   90.5507   10.9372 C.ar    1  UNL1        0.0194
     14 C          63.1315   90.5568   12.4138 C.ar    1  UNL1        0.0017
     15 C          64.1295   91.5150   12.9934 C.ar    1  UNL1        0.0046
     16 C          69.4034   91.6962   17.2000 C.3     1  UNL1        0.0897
     17 N          68.5179   92.1285   16.0690 N.3     1  UNL1       -0.2686
     18 C          67.5200   91.1703   15.4894 C.3     1  UNL1        0.0939
     19 C          66.6345   91.6026   14.3584 C.3     1  UNL1        0.1110
     20 N          66.7470   92.9930   13.8070 N.am    1  UNL1       -0.2732
     21 C          65.8616   93.4253   12.6760 C.2     1  UNL1        0.2491
     22 O          65.9741   94.8157   12.1246 O.2     1  UNL1       -0.2699
     23 C          67.7451   93.9512   14.3866 C.3     1  UNL1        0.1110
     24 C          68.6305   93.5189   15.5176 C.3     1  UNL1        0.0939
     25 C          59.5101   90.0095    6.1180 C.ar    1  UNL1        0.0193
     26 C          60.8243   90.3875    5.5015 C.ar    1  UNL1        0.0022
     27 C          60.8797   91.4548    4.4490 C.ar    1  UNL1        0.0103
     28 C          59.6209   92.1442    4.0129 C.ar    1  UNL1        0.0684
     29 C          58.3067   91.7663    4.6294 C.ar    1  UNL1        0.0103
     30 C          58.2514   90.6990    5.6819 C.ar    1  UNL1        0.0022
     31 C          59.6763   93.2115    2.9604 C.1     1  UNL1        0.1004
     32 N          59.7316   94.2789    1.9079 N.1     1  UNL1       -0.1908
@<TRIPOS>BOND
     1    16    17    1
     2    17    18    1
     3    18    19    1
     4    19    20    1
     5    20    21   am
     6    21    22    2
     7    21    10    1
     8    10    11   ar
     9    11    12   ar
    10    12    13   ar
    11    13     1    1
    12     1     2   ar
    13     2     3   ar
    14     3     4   ar
    15     4     5   ar
    16     5     6   ar
    17     6     7   ar
    18     7    25    1
    19    25    26   ar
    20    26    27   ar
    21    27    28   ar
    22    28    31    1
    23    31    32    3
    24    28    29   ar
    25    29    30   ar
    26     7     8   ar
    27     8     9   ar
    28    13    14   ar
    29    14    15   ar
    30    20    23    1
    31    23    24    1
    32    24    17    1
    33    15    10   ar
    34     9     1   ar
    35     8     4   ar
    36    30    25   ar
@<TRIPOS>MOLECULE
*****
 32 36 0 0 0
SMALL
GASTEIGER

@<TRIPOS>ATOM
      1 C          59.8898   89.5619    6.6704 C.ar    1  UNL1        0.1014
      2 C          59.0577   88.3318    6.4603 C.ar    1  UNL1        0.0240
      3 C          59.0630   87.2384    7.4871 C.ar    1  UNL1        0.0404
      4 C          59.9005   87.3751    8.7240 C.ar    1  UNL1        0.1639
      5 N          60.1061   86.4696    9.9021 N.ar    1  UNL1       -0.2234
      6 C          61.0653   87.1402   10.8403 C.ar    1  UNL1        0.1197
      7 C          61.4525   88.4601   10.2420 C.ar    1  UNL1        0.1035
      8 N          60.7326   88.6053    8.9341 N.ar    1  UNL1       -0.2107
      9 N          60.7273   89.6987    7.9073 N.ar    1  UNL1       -0.1638
     10 C          59.8740   92.8423    3.5898 C.ar    1  UNL1        0.0536
     11 C          61.1304   92.0659    3.8524 C.ar    1  UNL1        0.0046
     12 C          61.1356   90.9725    4.8792 C.ar    1  UNL1        0.0017
     13 C          59.8845   90.6554    5.6435 C.ar    1  UNL1        0.0194
     14 C          58.6282   91.4317    5.3810 C.ar    1  UNL1        0.0017
     15 C          58.6229   92.5251    4.3542 C.ar    1  UNL1        0.0046
     16 C          58.6342   92.6624   -3.1688 C.3     1  UNL1        0.0897
     17 N          58.9428   92.9807   -1.7359 N.3     1  UNL1       -0.2686
     18 C          58.9481   91.8873   -0.7091 C.3     1  UNL1        0.0939
     19 C          59.2567   92.2056    0.7240 C.3     1  UNL1        0.1110
     20 N          59.5601   93.6174    1.1301 N.am    1  UNL1       -0.2732
     21 C          59.8687   93.9357    2.5630 C.2     1  UNL1        0.2491
     22 O          60.1721   95.3474    2.9692 O.2     1  UNL1       -0.2699
     23 C          59.5548   94.7108    0.1032 C.3     1  UNL1        0.1110
     24 C          59.2462   94.3925   -1.3297 C.3     1  UNL1        0.0939
     25 C          62.3943   89.4594   10.8456 C.ar    1  UNL1        0.0193
     26 C          62.8227   90.6595   10.0543 C.ar    1  UNL1        0.0022
     27 C          63.7645   91.6588   10.6579 C.ar    1  UNL1        0.0103
     28 C          64.2780   91.4581   12.0529 C.ar    1  UNL1        0.0684
     29 C          63.8496   90.2580   12.8442 C.ar    1  UNL1        0.0103
     30 C          62.9078   89.2587   12.2406 C.ar    1  UNL1        0.0022
     31 C          65.2198   92.4574   12.6565 C.1     1  UNL1        0.1004
     32 N          66.1616   93.4567   13.2602 N.1     1  UNL1       -0.1908
@<TRIPOS>BOND
     1    16    17    1
     2    17    18    1
     3    18    19    1
     4    19    20    1
     5    20    21   am
     6    21    22    2
     7    21    10    1
     8    10    11   ar
     9    11    12   ar
    10    12    13   ar
    11    13     1    1
    12     1     2   ar
    13     2     3   ar
    14     3     4   ar
    15     4     5   ar
    16     5     6   ar
    17     6     7   ar
    18     7    25    1
    19    25    26   ar
    20    26    27   ar
    21    27    28   ar
    22    28    31    1
    23    31    32    3
    24    28    29   ar
    25    29    30   ar
    26     7     8   ar
    27     8     9   ar
    28    13    14   ar
    29    14    15   ar
    30    20    23    1
    31    23    24    1
    32    24    17    1
    33    15    10   ar
    34     9     1   ar
    35     8     4   ar
    36    30    25   ar
@<TRIPOS>MOLECULE
*****
 32 36 0 0 0
SMALL
GASTEIGER

@<TRIPOS>ATOM
      1 C          63.8977   87.9494   15.2449 C.ar    1  UNL1        0.1014
      2 C          63.2206   88.2490   16.5494 C.ar    1  UNL1        0.0240
      3 C          63.2255   89.6470   17.0931 C.ar    1  UNL1        0.0404
      4 C          63.9074   90.7452   16.3323 C.ar    1  UNL1        0.1639
      5 N          64.0753   92.2086   16.6163 N.ar    1  UNL1       -0.2234
      6 C          64.8561   92.8132   15.4873 C.ar    1  UNL1        0.1197
      7 C          65.1708   91.7236   14.5056 C.ar    1  UNL1        0.1035
      8 N          64.5845   90.4456   15.0278 N.ar    1  UNL1       -0.2107
      9 N          64.5796   89.0476   14.4841 N.ar    1  UNL1       -0.1638
     10 C          63.8831   83.7554   13.6136 C.ar    1  UNL1        0.0536
     11 C          64.2848   84.0051   15.0371 C.ar    1  UNL1        0.0046
     12 C          64.2897   85.4031   15.5808 C.ar    1  UNL1        0.0017
     13 C          63.8928   86.5513   14.7011 C.ar    1  UNL1        0.0194
     14 C          63.4911   86.3017   13.2777 C.ar    1  UNL1        0.0017
     15 C          63.4863   84.9037   12.7339 C.ar    1  UNL1        0.0046
     16 C          59.2571   78.7075   14.2196 C.3     1  UNL1        0.0897
     17 N          60.4124   79.6199   13.9322 N.3     1  UNL1       -0.2686
     18 C          60.4172   81.0179   14.4759 C.3     1  UNL1        0.0939
     19 C          61.5726   81.9304   14.1885 C.3     1  UNL1        0.1110
     20 N          62.7230   81.4450   13.3573 N.am    1  UNL1       -0.2732
     21 C          63.8783   82.3574   13.0699 C.2     1  UNL1        0.2491
     22 O          65.0287   81.8720   12.2387 O.2     1  UNL1       -0.2699
     23 C          62.7181   80.0469   12.8136 C.3     1  UNL1        0.1110
     24 C          61.5628   79.1345   13.1010 C.3     1  UNL1        0.0939
     25 C          65.9372   91.8839   13.2262 C.ar    1  UNL1        0.0193
     26 C          65.2117   92.1989   11.9516 C.ar    1  UNL1        0.0022
     27 C          65.9781   92.3592   10.6722 C.ar    1  UNL1        0.0103
     28 C          67.4701   92.2046   10.6673 C.ar    1  UNL1        0.0684
     29 C          68.1956   91.8897   11.9418 C.ar    1  UNL1        0.0103
     30 C          67.4292   91.7294   13.2212 C.ar    1  UNL1        0.0022
     31 C          68.2365   92.3649    9.3879 C.1     1  UNL1        0.1004
     32 N          69.0029   92.5252    8.1085 N.1     1  UNL1       -0.1908
@<TRIPOS>BOND
     1    16    17    1
     2    17    18    1
     3    18    19    1
     4    19    20    1
     5    20    21   am
     6    21    22    2
     7    21    10    1
     8    10    11   ar
     9    11    12   ar
    10    12    13   ar
    11    13     1    1
    12     1     2   ar
    13     2     3   ar
    14     3     4   ar
    15     4     5   ar
    16     5     6   ar
    17     6     7   ar
    18     7    25    1
    19    25    26   ar
    20    26    27   ar
    21    27    28   ar
    22    28    31    1
    23    31    32    3
    24    28    29   ar
    25    29    30   ar
    26     7     8   ar
    27     8     9   ar
    28    13    14   ar
    29    14    15   ar
    30    20    23    1
    31    23    24    1
    32    24    17    1
    33    15    10   ar
    34     9     1   ar
    35     8     4   ar
    36    30    25   ar
