@<TRIPOS>MOLECULE
*****
 43 45 0 0 0
SMALL
GASTEIGER

@<TRIPOS>ATOM
      1 C          63.4872   89.4352   12.8477 C.3     1  UNL1        0.1086
      2 O          63.4384   88.8752   11.4571 O.3     1  UNL1       -0.3826
      3 H          63.2197   89.5831   10.8309 H       1  UNL1        0.2107
      4 C          63.8287   88.0762   13.3830 C.3     1  UNL1        0.0485
      5 C          64.6845   87.9459   14.6079 C.3     1  UNL1        0.0061
      6 C          65.0260   86.5869   15.1432 C.3     1  UNL1        0.0217
      7 C          64.5116   85.3582   14.4535 C.3     1  UNL1        0.0934
      8 N          63.6557   85.4885   13.2285 N.am    1  UNL1       -0.2794
      9 C          63.1413   84.2597   12.5388 C.2     1  UNL1        0.2281
     10 O          62.2855   84.3901   11.3139 O.2     1  UNL1       -0.2748
     11 C          63.3143   86.8475   12.6933 C.3     1  UNL1        0.0960
     12 C          63.4828   82.9008   13.0741 C.3     1  UNL1        0.1158
     13 C          62.5550   82.2184   14.0351 C.3     1  UNL1        0.1350
     14 O          62.4916   82.6689   15.4644 O.3     1  UNL1       -0.3825
     15 H          61.8471   82.1270   15.9459 H       1  UNL1        0.2104
     16 C          61.6906   81.0855   13.5667 C.3     1  UNL1        0.0952
     17 N          60.4022   80.7835   14.2729 N.3     1  UNL1       -0.3191
     18 H          60.6009   80.4658   15.2216 H       1  UNL1        0.1189
     19 H          59.9006   80.0531   13.7677 H       1  UNL1        0.1189
     20 C          64.5778   91.0114   14.6017 C.ar    1  UNL1        0.0257
     21 C          64.6267   91.5714   15.9923 C.ar    1  UNL1        0.1398
     22 F          65.6685   92.5875   16.3555 F       1  UNL1       -0.2042
     23 C          63.6336   91.1152   17.0199 C.ar    1  UNL1        0.0296
     24 C          62.5917   90.0990   16.6567 C.ar    1  UNL1        0.0021
     25 C          62.5429   89.5390   15.2659 C.ar    1  UNL1       -0.0019
     26 C          63.5360   89.9952   14.2385 C.ar    1  UNL1        0.0039
     27 C          66.1070   92.7343   11.3701 C.ar    1  UNL1       -0.0222
     28 C          67.5569   92.3799   11.5191 C.ar    1  UNL1       -0.0043
     29 C          68.0138   91.5693   12.6956 C.ar    1  UNL1       -0.0003
     30 C          67.0208   91.1131   13.7231 C.ar    1  UNL1        0.0000
     31 C          65.5709   91.4675   13.5741 C.ar    1  UNL1        0.0016
     32 C          65.1141   92.2781   12.3976 C.ar    1  UNL1       -0.0042
     33 C          66.6251   94.4172    9.4597 C.3     1  UNL1        0.0050
     34 C          65.6502   93.5449   10.1935 C.3     1  UNL1        0.0264
     35 C          63.1457   90.7942   12.3124 C.3     1  UNL1        0.0330
     36 C          62.3245   90.9239   11.0639 C.3     1  UNL1        0.0241
     37 C          60.8839   90.5063   11.0670 C.3     1  UNL1        0.0928
     38 N          60.2094   90.1297    9.7812 N.am    1  UNL1       -0.2707
     39 C          60.4469   88.7771    9.1778 C.2     1  UNL1        0.4017
     40 O          61.3590   87.8011    9.8602 O.2     1  UNL1       -0.2264
     41 H          59.6108   90.7703    9.3334 H       1  UNL1        0.1527
     42 O          59.7725   88.4005    7.8920 O.3     1  UNL1       -0.4306
     43 C          59.0744   87.0783    7.7705 C.3     1  UNL1        0.2573
@<TRIPOS>BOND
     1    33    34    1
     2    34    27    1
     3    27    28   ar
     4    28    29   ar
     5    29    30   ar
     6    30    31   ar
     7    31    20    1
     8    20    21   ar
     9    21    22    1
    10    21    23   ar
    11    23    24   ar
    12    24    25   ar
    13    25    26   ar
    14    26     1    1
    15     1     2    1
    16     1    35    1
    17    35    36    1
    18    36    37    1
    19    37    38    1
    20    38    39   am
    21    39    40    2
    22    39    42    1
    23    42    43    1
    24     4     1    1
    25     4     5    1
    26     5     6    1
    27     6     7    1
    28     7     8    1
    29     8     9   am
    30     9    10    2
    31     9    12    1
    32    12    13    1
    33    13    14    1
    34    13    16    1
    35    16    17    1
    36     8    11    1
    37    31    32   ar
    38    32    27   ar
    39    26    20   ar
    40    11     4    1
    41     2     3    1
    42    38    41    1
    43    14    15    1
    44    17    18    1
    45    17    19    1
@<TRIPOS>MOLECULE
*****
 43 45 0 0 0
SMALL
GASTEIGER

@<TRIPOS>ATOM
      1 C          63.0623   88.3369   12.5122 C.3     1  UNL1        0.1086
      2 O          64.4572   88.1171   13.0181 O.3     1  UNL1       -0.3826
      3 H          64.5052   87.2616   13.4728 H       1  UNL1        0.2107
      4 C          63.4768   89.6623   11.9453 C.3     1  UNL1        0.0485
      5 C          62.9627   90.0987   10.6054 C.3     1  UNL1        0.0061
      6 C          63.3772   91.4242   10.0384 C.3     1  UNL1        0.0217
      7 C          64.3058   92.3132   10.8114 C.3     1  UNL1        0.0934
      8 N          64.8199   91.8768   12.1512 N.am    1  UNL1       -0.2794
      9 C          65.7485   92.7658   12.9241 C.2     1  UNL1        0.2281
     10 O          66.2626   92.3294   14.2640 O.2     1  UNL1       -0.2748
     11 C          64.4054   90.5514   12.7182 C.3     1  UNL1        0.0960
     12 C          66.1630   94.0912   12.3572 C.3     1  UNL1        0.1158
     13 C          66.7803   94.1629   10.9920 C.3     1  UNL1        0.1350
     14 O          67.7608   93.1148   10.5562 O.3     1  UNL1       -0.3825
     15 H          68.0616   93.3083    9.6545 H       1  UNL1        0.2104
     16 C          66.4170   95.2828   10.0625 C.3     1  UNL1        0.0952
     17 N          65.0255   95.8428   10.0707 N.3     1  UNL1       -0.3191
     18 H          64.3708   95.1316    9.7450 H       1  UNL1        0.1189
     19 H          64.9816   96.6535    9.4532 H       1  UNL1        0.1189
     20 C          61.1131   87.6742   10.9274 C.ar    1  UNL1        0.0257
     21 C          59.7183   87.8940   10.4215 C.ar    1  UNL1        0.1398
     22 F          59.1640   87.0115    9.3426 F       1  UNL1       -0.2042
     23 C          58.8776   88.9964   10.9944 C.ar    1  UNL1        0.0296
     24 C          59.4319   89.8789   12.0733 C.ar    1  UNL1        0.0021
     25 C          60.8268   89.6591   12.5792 C.ar    1  UNL1       -0.0019
     26 C          61.6674   88.5568   12.0063 C.ar    1  UNL1        0.0039
     27 C          63.0199   84.2123   10.5681 C.ar    1  UNL1       -0.0222
     28 C          63.6349   84.3672    9.2088 C.ar    1  UNL1       -0.0043
     29 C          63.4094   85.6244    8.4224 C.ar    1  UNL1       -0.0003
     30 C          62.5688   86.7267    8.9952 C.ar    1  UNL1        0.0000
     31 C          61.9538   86.5719   10.3545 C.ar    1  UNL1        0.0016
     32 C          62.1793   85.3146   11.1410 C.ar    1  UNL1       -0.0042
     33 C          63.5755   81.6755   10.6448 C.3     1  UNL1        0.0050
     34 C          63.2455   82.9551   11.3546 C.3     1  UNL1        0.0264
     35 C          62.6479   87.0115   13.0792 C.3     1  UNL1        0.0330
     36 C          63.6427   86.1689   13.8210 C.3     1  UNL1        0.0241
     37 C          63.1880   85.2874   14.9462 C.3     1  UNL1        0.0928
     38 N          62.1343   84.2473   14.7053 N.am    1  UNL1       -0.2707
     39 C          62.5025   82.7932   14.7030 C.2     1  UNL1        0.4017
     40 O          63.9244   82.3792   14.9417 O.2     1  UNL1       -0.2264
     41 H          61.2011   84.5190   14.5486 H       1  UNL1        0.1527
     42 O          61.4489   81.7531   14.4621 O.3     1  UNL1       -0.4306
     43 C          61.8037   80.4738   13.7638 C.3     1  UNL1        0.2573
@<TRIPOS>BOND
     1    33    34    1
     2    34    27    1
     3    27    28   ar
     4    28    29   ar
     5    29    30   ar
     6    30    31   ar
     7    31    20    1
     8    20    21   ar
     9    21    22    1
    10    21    23   ar
    11    23    24   ar
    12    24    25   ar
    13    25    26   ar
    14    26     1    1
    15     1     2    1
    16     1    35    1
    17    35    36    1
    18    36    37    1
    19    37    38    1
    20    38    39   am
    21    39    40    2
    22    39    42    1
    23    42    43    1
    24     4     1    1
    25     4     5    1
    26     5     6    1
    27     6     7    1
    28     7     8    1
    29     8     9   am
    30     9    10    2
    31     9    12    1
    32    12    13    1
    33    13    14    1
    34    13    16    1
    35    16    17    1
    36     8    11    1
    37    31    32   ar
    38    32    27   ar
    39    26    20   ar
    40    11     4    1
    41     2     3    1
    42    38    41    1
    43    14    15    1
    44    17    18    1
    45    17    19    1
@<TRIPOS>MOLECULE
*****
 43 45 0 0 0
SMALL
GASTEIGER

@<TRIPOS>ATOM
      1 C          62.4818   87.5740   12.0742 C.3     1  UNL1        0.1086
      2 O          63.4579   86.6356   12.7195 O.3     1  UNL1       -0.3826
      3 H          63.1685   85.7206   12.5784 H       1  UNL1        0.2107
      4 C          63.3017   88.7429   12.5339 C.3     1  UNL1        0.0485
      5 C          63.8938   88.7480   13.9121 C.3     1  UNL1        0.0061
      6 C          64.7138   89.9170   14.3718 C.3     1  UNL1        0.0217
      7 C          64.9415   91.0808   13.4533 C.3     1  UNL1        0.0934
      8 N          64.3494   91.0757   12.0751 N.am    1  UNL1       -0.2794
      9 C          64.5772   92.2396   11.1567 C.2     1  UNL1        0.2281
     10 O          63.9851   92.2345    9.7785 O.2     1  UNL1       -0.2748
     11 C          63.5295   89.9068   11.6154 C.3     1  UNL1        0.0960
     12 C          65.3971   93.4085   11.6164 C.3     1  UNL1        0.1158
     13 C          65.8363   94.4504   10.6307 C.3     1  UNL1        0.1350
     14 O          64.9316   95.6009   10.3023 O.3     1  UNL1       -0.3825
     15 H          65.3643   96.1774    9.6532 H       1  UNL1        0.2104
     16 C          67.1803   94.3419    9.9735 C.3     1  UNL1        0.0952
     17 N          67.9462   93.0539   10.0406 N.3     1  UNL1       -0.3191
     18 H          68.2132   92.8670   11.0071 H       1  UNL1        0.1189
     19 H          68.7845   93.1264    9.4641 H       1  UNL1        0.1189
     20 C          61.1483   88.3444    9.9818 C.ar    1  UNL1        0.0257
     21 C          60.1722   89.2829    9.3364 C.ar    1  UNL1        0.1398
     22 F          59.8148   89.1148    7.8893 F       1  UNL1       -0.2042
     23 C          59.5535   90.3895   10.1381 C.ar    1  UNL1        0.0296
     24 C          59.9109   90.5576   11.5852 C.ar    1  UNL1        0.0021
     25 C          60.8870   89.6191   12.2305 C.ar    1  UNL1       -0.0019
     26 C          61.5057   88.5125   11.4288 C.ar    1  UNL1        0.0039
     27 C          61.5405   85.3220    7.4399 C.ar    1  UNL1       -0.0222
     28 C          63.0044   85.0247    7.5767 C.ar    1  UNL1       -0.0043
     29 C          63.8495   85.8340    8.5151 C.ar    1  UNL1       -0.0003
     30 C          63.2309   86.9406    9.3168 C.ar    1  UNL1        0.0000
     31 C          61.7670   87.2378    9.1801 C.ar    1  UNL1        0.0016
     32 C          60.9219   86.4285    8.2416 C.ar    1  UNL1       -0.0042
     33 C          61.3172   83.8689    5.2978 C.3     1  UNL1        0.0050
     34 C          60.6953   84.5127    6.5015 C.3     1  UNL1        0.0264
     35 C          61.6620   86.4051   11.6145 C.3     1  UNL1        0.0330
     36 C          61.9155   85.0408   12.1841 C.3     1  UNL1        0.0241
     37 C          62.5871   83.9920   11.3483 C.3     1  UNL1        0.0928
     38 N          62.6424   82.5720   11.8285 N.am    1  UNL1       -0.2707
     39 C          63.5801   82.1905   12.9352 C.2     1  UNL1        0.4017
     40 O          64.4628   83.2290   13.5618 O.2     1  UNL1       -0.2264
     41 H          62.0631   81.8904   11.4172 H       1  UNL1        0.1527
     42 O          63.6354   80.7705   13.4155 O.3     1  UNL1       -0.4306
     43 C          62.4284   79.8887   13.2894 C.3     1  UNL1        0.2573
@<TRIPOS>BOND
     1    33    34    1
     2    34    27    1
     3    27    28   ar
     4    28    29   ar
     5    29    30   ar
     6    30    31   ar
     7    31    20    1
     8    20    21   ar
     9    21    22    1
    10    21    23   ar
    11    23    24   ar
    12    24    25   ar
    13    25    26   ar
    14    26     1    1
    15     1     2    1
    16     1    35    1
    17    35    36    1
    18    36    37    1
    19    37    38    1
    20    38    39   am
    21    39    40    2
    22    39    42    1
    23    42    43    1
    24     4     1    1
    25     4     5    1
    26     5     6    1
    27     6     7    1
    28     7     8    1
    29     8     9   am
    30     9    10    2
    31     9    12    1
    32    12    13    1
    33    13    14    1
    34    13    16    1
    35    16    17    1
    36     8    11    1
    37    31    32   ar
    38    32    27   ar
    39    26    20   ar
    40    11     4    1
    41     2     3    1
    42    38    41    1
    43    14    15    1
    44    17    18    1
    45    17    19    1
@<TRIPOS>MOLECULE
*****
 43 45 0 0 0
SMALL
GASTEIGER

@<TRIPOS>ATOM
      1 C          62.4708   86.9401   12.2218 C.3     1  UNL1        0.1086
      2 O          63.4778   86.8258   13.3276 O.3     1  UNL1       -0.3826
      3 H          63.3983   85.9556   13.7486 H       1  UNL1        0.2107
      4 C          62.9573   88.3271   11.9222 C.3     1  UNL1        0.0485
      5 C          62.7346   88.9229   10.5638 C.3     1  UNL1        0.0061
      6 C          63.2211   90.3099   10.2642 C.3     1  UNL1        0.0217
      7 C          63.9302   91.1010   11.3231 C.3     1  UNL1        0.0934
      8 N          64.1528   90.5052   12.6816 N.am    1  UNL1       -0.2794
      9 C          64.8620   91.2964   13.7405 C.2     1  UNL1        0.2281
     10 O          65.0847   90.7005   15.0989 O.2     1  UNL1       -0.2748
     11 C          63.6664   89.1182   12.9811 C.3     1  UNL1        0.0960
     12 C          65.3484   92.6833   13.4409 C.3     1  UNL1        0.1158
     13 C          66.7601   92.9003   12.9828 C.3     1  UNL1        0.1350
     14 O          67.0396   93.7963   11.8127 O.3     1  UNL1       -0.3825
     15 H          67.9954   93.8268   11.6499 H       1  UNL1        0.2104
     16 C          67.8925   92.2213   13.6949 C.3     1  UNL1        0.0952
     17 N          69.0041   91.5930   12.9079 N.3     1  UNL1       -0.3191
     18 H          68.6395   90.8033   12.3752 H       1  UNL1        0.1189
     19 H          69.7300   91.2667   13.5458 H       1  UNL1        0.1189
     20 C          61.4108   86.0116   10.0391 C.ar    1  UNL1        0.0257
     21 C          60.4038   86.1260    8.9332 C.ar    1  UNL1        0.1398
     22 F          60.3508   85.0831    7.8564 F       1  UNL1       -0.2042
     23 C          59.4498   87.2832    8.9042 C.ar    1  UNL1        0.0296
     24 C          59.5029   88.3261    9.9811 C.ar    1  UNL1        0.0021
     25 C          60.5099   88.2117   11.0869 C.ar    1  UNL1       -0.0019
     26 C          61.4638   87.0545   11.1159 C.ar    1  UNL1        0.0039
     27 C          63.0119   82.4932   10.9376 C.ar    1  UNL1       -0.0222
     28 C          64.2726   82.5400   10.1262 C.ar    1  UNL1       -0.0043
     29 C          64.5794   83.7440    9.2857 C.ar    1  UNL1       -0.0003
     30 C          63.6255   84.9012    9.2567 C.ar    1  UNL1        0.0000
     31 C          62.3648   84.8544   10.0681 C.ar    1  UNL1        0.0016
     32 C          62.0580   83.6504   10.9085 C.ar    1  UNL1       -0.0042
     33 C          63.4345   81.0712   13.0704 C.3     1  UNL1        0.0050
     34 C          62.7051   81.2893   11.7780 C.3     1  UNL1        0.0264
     35 C          61.9844   85.5532   12.5214 C.3     1  UNL1        0.0330
     36 C          62.7645   84.6687   13.4483 C.3     1  UNL1        0.0241
     37 C          62.1490   84.2013   14.7338 C.3     1  UNL1        0.0928
     38 N          61.9392   85.1692   15.8604 N.am    1  UNL1       -0.2707
     39 C          63.1106   85.8926   16.4557 C.2     1  UNL1        0.4017
     40 O          64.4920   85.6481   15.9245 O.2     1  UNL1       -0.2264
     41 H          61.0326   85.3296   16.2091 H       1  UNL1        0.1527
     42 O          62.9007   86.8605   17.5823 O.3     1  UNL1       -0.4306
     43 C          63.0421   88.3342   17.3410 C.3     1  UNL1        0.2573
@<TRIPOS>BOND
     1    33    34    1
     2    34    27    1
     3    27    28   ar
     4    28    29   ar
     5    29    30   ar
     6    30    31   ar
     7    31    20    1
     8    20    21   ar
     9    21    22    1
    10    21    23   ar
    11    23    24   ar
    12    24    25   ar
    13    25    26   ar
    14    26     1    1
    15     1     2    1
    16     1    35    1
    17    35    36    1
    18    36    37    1
    19    37    38    1
    20    38    39   am
    21    39    40    2
    22    39    42    1
    23    42    43    1
    24     4     1    1
    25     4     5    1
    26     5     6    1
    27     6     7    1
    28     7     8    1
    29     8     9   am
    30     9    10    2
    31     9    12    1
    32    12    13    1
    33    13    14    1
    34    13    16    1
    35    16    17    1
    36     8    11    1
    37    31    32   ar
    38    32    27   ar
    39    26    20   ar
    40    11     4    1
    41     2     3    1
    42    38    41    1
    43    14    15    1
    44    17    18    1
    45    17    19    1
@<TRIPOS>MOLECULE
*****
 43 45 0 0 0
SMALL
GASTEIGER

@<TRIPOS>ATOM
      1 C          62.3275   88.0270   11.6166 C.3     1  UNL1        0.1086
      2 O          63.4132   87.3191   12.3716 O.3     1  UNL1       -0.3826
      3 H          63.1672   86.3891   12.4958 H       1  UNL1        0.2107
      4 C          63.1149   89.3022   11.6799 C.3     1  UNL1        0.0485
      5 C          63.2125   90.1842   10.4706 C.3     1  UNL1        0.0061
      6 C          63.9999   91.4594   10.5339 C.3     1  UNL1        0.0217
      7 C          64.6897   91.8525   11.8065 C.3     1  UNL1        0.0934
      8 N          64.5921   90.9704   13.0159 N.am    1  UNL1       -0.2794
      9 C          65.2820   91.3636   14.2886 C.2     1  UNL1        0.2281
     10 O          65.1844   90.4815   15.4979 O.2     1  UNL1       -0.2748
     11 C          63.8048   89.6953   12.9526 C.3     1  UNL1        0.0960
     12 C          66.0694   92.6387   14.3518 C.3     1  UNL1        0.1158
     13 C          66.8687   92.9665   15.5780 C.3     1  UNL1        0.1350
     14 O          66.1899   93.0627   16.9122 O.3     1  UNL1       -0.3825
     15 H          66.8453   93.2803   17.5934 H       1  UNL1        0.2104
     16 C          68.3468   93.1981   15.4701 C.3     1  UNL1        0.0952
     17 N          69.1479   92.4618   14.4376 N.3     1  UNL1       -0.3191
     18 H          69.1466   91.4649   14.6536 H       1  UNL1        0.1189
     19 H          70.1069   92.8090   14.4401 H       1  UNL1        0.1189
     20 C          60.8852   88.2957    9.4724 C.ar    1  UNL1        0.0257
     21 C          59.7995   89.0036    8.7174 C.ar    1  UNL1        0.1398
     22 F          59.4429   88.5643    7.3282 F       1  UNL1       -0.2042
     23 C          59.0703   90.1509    9.3516 C.ar    1  UNL1        0.0296
     24 C          59.4269   90.5902   10.7408 C.ar    1  UNL1        0.0021
     25 C          60.5127   89.8822   11.4958 C.ar    1  UNL1       -0.0019
     26 C          61.2418   88.7350   10.8616 C.ar    1  UNL1        0.0039
     27 C          61.6330   85.1061    7.2325 C.ar    1  UNL1       -0.0222
     28 C          63.0725   84.8539    7.5700 C.ar    1  UNL1       -0.0043
     29 C          63.7830   85.7489    8.5416 C.ar    1  UNL1       -0.0003
     30 C          63.0539   86.8962    9.1758 C.ar    1  UNL1        0.0000
     31 C          61.6144   87.1484    8.8383 C.ar    1  UNL1        0.0016
     32 C          60.9039   86.2533    7.8666 C.ar    1  UNL1       -0.0042
     33 C          61.5705   83.8571    4.9552 C.3     1  UNL1        0.0050
     34 C          60.9225   84.2110    6.2608 C.3     1  UNL1        0.0264
     35 C          61.5401   86.7519   11.5534 C.3     1  UNL1        0.0330
     36 C          62.0160   85.5389   12.2965 C.3     1  UNL1        0.0241
     37 C          62.4090   84.3035   11.5421 C.3     1  UNL1        0.0928
     38 N          62.4246   82.9739   12.2363 N.am    1  UNL1       -0.2707
     39 C          63.6177   82.0741   12.1068 C.2     1  UNL1        0.4017
     40 O          64.7953   82.5039   11.2830 O.2     1  UNL1       -0.2264
     41 H          61.6517   82.6918   12.7770 H       1  UNL1        0.1527
     42 O          63.6332   80.7445   12.8011 O.3     1  UNL1       -0.4306
     43 C          62.3566   80.1577   13.3262 C.3     1  UNL1        0.2573
@<TRIPOS>BOND
     1    33    34    1
     2    34    27    1
     3    27    28   ar
     4    28    29   ar
     5    29    30   ar
     6    30    31   ar
     7    31    20    1
     8    20    21   ar
     9    21    22    1
    10    21    23   ar
    11    23    24   ar
    12    24    25   ar
    13    25    26   ar
    14    26     1    1
    15     1     2    1
    16     1    35    1
    17    35    36    1
    18    36    37    1
    19    37    38    1
    20    38    39   am
    21    39    40    2
    22    39    42    1
    23    42    43    1
    24     4     1    1
    25     4     5    1
    26     5     6    1
    27     6     7    1
    28     7     8    1
    29     8     9   am
    30     9    10    2
    31     9    12    1
    32    12    13    1
    33    13    14    1
    34    13    16    1
    35    16    17    1
    36     8    11    1
    37    31    32   ar
    38    32    27   ar
    39    26    20   ar
    40    11     4    1
    41     2     3    1
    42    38    41    1
    43    14    15    1
    44    17    18    1
    45    17    19    1
@<TRIPOS>MOLECULE
*****
 43 45 0 0 0
SMALL
GASTEIGER

@<TRIPOS>ATOM
      1 C          62.9953   88.2408   12.4345 C.3     1  UNL1        0.1086
      2 O          64.3703   88.0090   12.9872 O.3     1  UNL1       -0.3826
      3 H          64.3984   87.1484   13.4339 H       1  UNL1        0.2107
      4 C          63.4354   89.5704   11.8974 C.3     1  UNL1        0.0485
      5 C          62.9713   90.0238   10.5450 C.3     1  UNL1        0.0061
      6 C          63.4114   91.3534   10.0079 C.3     1  UNL1        0.0217
      7 C          64.3156   92.2296   10.8232 C.3     1  UNL1        0.0934
      8 N          64.7796   91.7762   12.1756 N.am    1  UNL1       -0.2794
      9 C          65.6839   92.6524   12.9909 C.2     1  UNL1        0.2281
     10 O          66.1480   92.1990   14.3433 O.2     1  UNL1       -0.2748
     11 C          64.3396   90.4466   12.7127 C.3     1  UNL1        0.0960
     12 C          66.1239   93.9820   12.4538 C.3     1  UNL1        0.1158
     13 C          66.8076   94.0634   11.1212 C.3     1  UNL1        0.1350
     14 O          67.8169   93.0246   10.7312 O.3     1  UNL1       -0.3825
     15 H          68.1604   93.2237    9.8462 H       1  UNL1        0.2104
     16 C          66.4819   95.1838   10.1784 C.3     1  UNL1        0.0952
     17 N          65.0983   95.7625   10.1507 N.3     1  UNL1       -0.3191
     18 H          64.4421   95.0587    9.8125 H       1  UNL1        0.1189
     19 H          65.0803   96.5709    9.5288 H       1  UNL1        0.1189
     20 C          61.0896   87.5859   10.7945 C.ar    1  UNL1        0.0257
     21 C          59.7147   87.8177   10.2417 C.ar    1  UNL1        0.1398
     22 F          59.1841   86.9309    9.1544 F       1  UNL1       -0.2042
     23 C          58.8702   88.9363   10.7761 C.ar    1  UNL1        0.0296
     24 C          59.4008   89.8232   11.8633 C.ar    1  UNL1        0.0021
     25 C          60.7758   89.5913   12.4161 C.ar    1  UNL1       -0.0019
     26 C          61.6202   88.4727   11.8817 C.ar    1  UNL1        0.0039
     27 C          62.9446   84.0880   10.5216 C.ar    1  UNL1       -0.0222
     28 C          63.6229   84.2299    9.1914 C.ar    1  UNL1       -0.0043
     29 C          63.4569   85.4904    8.3954 C.ar    1  UNL1       -0.0003
     30 C          62.6125   86.6091    8.9298 C.ar    1  UNL1        0.0000
     31 C          61.9341   86.4672   10.2601 C.ar    1  UNL1        0.0016
     32 C          62.1002   85.2067   11.0560 C.ar    1  UNL1       -0.0042
     33 C          64.4797   82.3794   11.7356 C.3     1  UNL1        0.0050
     34 C          63.1107   82.8275   11.3176 C.3     1  UNL1        0.0264
     35 C          62.5552   86.9112   12.9716 C.3     1  UNL1        0.0330
     36 C          63.5573   85.9852   13.5948 C.3     1  UNL1        0.0241
     37 C          63.8676   86.0913   15.0585 C.3     1  UNL1        0.0928
     38 N          64.0158   87.4400   15.6980 N.am    1  UNL1       -0.2707
     39 C          63.0355   87.8870   16.7416 C.2     1  UNL1        0.4017
     40 O          61.9070   86.9852   17.1458 O.2     1  UNL1       -0.2264
     41 H          64.7564   88.0319   15.4327 H       1  UNL1        0.1527
     42 O          63.1836   89.2357   17.3811 O.3     1  UNL1       -0.4306
     43 C          63.4568   90.4422   16.5325 C.3     1  UNL1        0.2573
@<TRIPOS>BOND
     1    33    34    1
     2    34    27    1
     3    27    28   ar
     4    28    29   ar
     5    29    30   ar
     6    30    31   ar
     7    31    20    1
     8    20    21   ar
     9    21    22    1
    10    21    23   ar
    11    23    24   ar
    12    24    25   ar
    13    25    26   ar
    14    26     1    1
    15     1     2    1
    16     1    35    1
    17    35    36    1
    18    36    37    1
    19    37    38    1
    20    38    39   am
    21    39    40    2
    22    39    42    1
    23    42    43    1
    24     4     1    1
    25     4     5    1
    26     5     6    1
    27     6     7    1
    28     7     8    1
    29     8     9   am
    30     9    10    2
    31     9    12    1
    32    12    13    1
    33    13    14    1
    34    13    16    1
    35    16    17    1
    36     8    11    1
    37    31    32   ar
    38    32    27   ar
    39    26    20   ar
    40    11     4    1
    41     2     3    1
    42    38    41    1
    43    14    15    1
    44    17    18    1
    45    17    19    1
@<TRIPOS>MOLECULE
*****
 43 45 0 0 0
SMALL
GASTEIGER

@<TRIPOS>ATOM
      1 C          62.2391   90.1376   12.1097 C.3     1  UNL1        0.1086
      2 O          61.6115   90.8879   10.9726 O.3     1  UNL1       -0.3826
      3 H          60.7429   90.5051   10.7729 H       1  UNL1        0.2107
      4 C          63.4418   91.0308   12.0353 C.3     1  UNL1        0.0485
      5 C          63.9940   91.4356   10.7006 C.3     1  UNL1        0.0061
      6 C          65.1968   92.3288   10.6262 C.3     1  UNL1        0.0217
      7 C          65.8474   92.8172   11.8864 C.3     1  UNL1        0.0934
      8 N          65.2952   92.4125   13.2211 N.am    1  UNL1       -0.2794
      9 C          65.9459   92.9010   14.4813 C.2     1  UNL1        0.2281
     10 O          65.3937   92.4962   15.8160 O.2     1  UNL1       -0.2748
     11 C          64.0925   91.5193   13.2955 C.3     1  UNL1        0.0960
     12 C          67.1486   93.7942   14.4069 C.3     1  UNL1        0.1158
     13 C          68.4200   93.3991   15.0977 C.3     1  UNL1        0.1350
     14 O          68.9873   94.2693   16.1798 O.3     1  UNL1       -0.3825
     15 H          69.8051   93.8724   16.5184 H       1  UNL1        0.2104
     16 C          69.1243   92.1337   14.7064 C.3     1  UNL1        0.0952
     17 N          69.1267   91.6890   13.2738 N.3     1  UNL1       -0.3191
     18 H          68.1764   91.4501   12.9904 H       1  UNL1        0.1189
     19 H          69.7275   90.8709   13.1729 H       1  UNL1        0.1189
     20 C          63.2548   87.9488   13.0729 C.ar    1  UNL1        0.0257
     21 C          63.8825   87.1985   14.2100 C.ar    1  UNL1        0.1398
     22 F          64.2705   85.7600   14.0360 F       1  UNL1       -0.2042
     23 C          64.1221   87.8866   15.5212 C.ar    1  UNL1        0.0296
     24 C          63.7341   89.3251   15.6952 C.ar    1  UNL1        0.0021
     25 C          63.1064   90.0754   14.5580 C.ar    1  UNL1       -0.0019
     26 C          62.8668   89.3873   13.2469 C.ar    1  UNL1        0.0039
     27 C          62.7624   85.0742   10.3814 C.ar    1  UNL1       -0.0222
     28 C          62.5358   85.8844    9.1396 C.ar    1  UNL1       -0.0043
     29 C          62.5489   87.3827    9.2088 C.ar    1  UNL1       -0.0003
     30 C          62.7886   88.0709   10.5199 C.ar    1  UNL1        0.0000
     31 C          63.0151   87.2607   11.7617 C.ar    1  UNL1        0.0016
     32 C          63.0021   85.7623   11.6925 C.ar    1  UNL1       -0.0042
     33 C          64.0319   82.8081   10.4362 C.3     1  UNL1        0.0050
     34 C          62.7493   83.5758   10.3122 C.3     1  UNL1        0.0264
     35 C          61.0364   89.2444   12.1842 C.3     1  UNL1        0.0330
     36 C          59.7946   89.5932   11.4185 C.3     1  UNL1        0.0241
     37 C          59.4998   88.9099   10.1161 C.3     1  UNL1        0.0928
     38 N          59.8272   89.5915    8.8206 N.am    1  UNL1       -0.2707
     39 C          59.4097   88.9711    7.5203 C.2     1  UNL1        0.4017
     40 O          58.6648   87.6691    7.5155 O.2     1  UNL1       -0.2264
     41 H          60.3161   90.4460    8.8238 H       1  UNL1        0.1527
     42 O          59.7370   89.6527    6.2248 O.3     1  UNL1       -0.4306
     43 C          58.7493   90.5946    5.6025 C.3     1  UNL1        0.2573
@<TRIPOS>BOND
     1    33    34    1
     2    34    27    1
     3    27    28   ar
     4    28    29   ar
     5    29    30   ar
     6    30    31   ar
     7    31    20    1
     8    20    21   ar
     9    21    22    1
    10    21    23   ar
    11    23    24   ar
    12    24    25   ar
    13    25    26   ar
    14    26     1    1
    15     1     2    1
    16     1    35    1
    17    35    36    1
    18    36    37    1
    19    37    38    1
    20    38    39   am
    21    39    40    2
    22    39    42    1
    23    42    43    1
    24     4     1    1
    25     4     5    1
    26     5     6    1
    27     6     7    1
    28     7     8    1
    29     8     9   am
    30     9    10    2
    31     9    12    1
    32    12    13    1
    33    13    14    1
    34    13    16    1
    35    16    17    1
    36     8    11    1
    37    31    32   ar
    38    32    27   ar
    39    26    20   ar
    40    11     4    1
    41     2     3    1
    42    38    41    1
    43    14    15    1
    44    17    18    1
    45    17    19    1
@<TRIPOS>MOLECULE
*****
 43 45 0 0 0
SMALL
GASTEIGER

@<TRIPOS>ATOM
      1 C          62.6321   87.0480   10.9969 C.3     1  UNL1        0.1086
      2 O          63.3040   87.3991   12.2912 O.3     1  UNL1       -0.3826
      3 H          63.3338   88.3637   12.3887 H       1  UNL1        0.2107
      4 C          62.8206   85.5900   11.2945 C.3     1  UNL1        0.0485
      5 C          63.3607   84.6725   10.2378 C.3     1  UNL1        0.0061
      6 C          63.5493   83.2144   10.5355 C.3     1  UNL1        0.0217
      7 C          63.1978   82.6739   11.8898 C.3     1  UNL1        0.0934
      8 N          62.6577   83.5913   12.9465 N.am    1  UNL1       -0.2794
      9 C          62.3062   83.0507   14.3009 C.2     1  UNL1        0.2281
     10 O          61.7661   83.9682   15.3576 O.2     1  UNL1       -0.2748
     11 C          62.4691   85.0493   12.6489 C.3     1  UNL1        0.0960
     12 C          62.4947   81.5927   14.5985 C.3     1  UNL1        0.1158
     13 C          61.5357   80.5833   14.0407 C.3     1  UNL1        0.1350
     14 O          62.0546   79.3354   13.3899 O.3     1  UNL1       -0.3825
     15 H          61.3086   78.7950   13.0860 H       1  UNL1        0.2104
     16 C          60.0576   80.8217   14.1336 C.3     1  UNL1        0.0952
     17 N          59.1400   79.7003   14.5212 N.3     1  UNL1       -0.3191
     18 H          59.1520   78.9845   13.7946 H       1  UNL1        0.1189
     19 H          58.1913   80.0591   14.6292 H       1  UNL1        0.1189
     20 C          60.6855   87.3827    9.3090 C.ar    1  UNL1        0.0257
     21 C          60.0136   87.0316    8.0147 C.ar    1  UNL1        0.1398
     22 F          58.7389   87.7175    7.6212 F       1  UNL1       -0.2042
     23 C          60.6162   85.9945    7.1139 C.ar    1  UNL1        0.0296
     24 C          61.8908   85.3086    7.5075 C.ar    1  UNL1        0.0021
     25 C          62.5628   85.6598    8.8018 C.ar    1  UNL1       -0.0019
     26 C          61.9601   86.6968    9.7025 C.ar    1  UNL1        0.0039
     27 C          58.7684   89.0398   12.3633 C.ar    1  UNL1       -0.0222
     28 C          58.8775   90.4937   12.0113 C.ar    1  UNL1       -0.0043
     29 C          59.5893   90.9107   10.7585 C.ar    1  UNL1       -0.0003
     30 C          60.1920   89.8738    9.8578 C.ar    1  UNL1        0.0000
     31 C          60.0828   88.4198   10.2098 C.ar    1  UNL1        0.0016
     32 C          59.3711   88.0028   11.4626 C.ar    1  UNL1       -0.0042
     33 C          56.6576   88.0870   13.5410 C.3     1  UNL1        0.0050
     34 C          58.0566   88.6227   13.6161 C.3     1  UNL1        0.0264
     35 C          62.4435   88.5060   10.6993 C.3     1  UNL1        0.0330
     36 C          63.3643   89.5211   11.3088 C.3     1  UNL1        0.0241
     37 C          62.8325   90.5214   12.2920 C.3     1  UNL1        0.0928
     38 N          62.2484   90.0567   13.5931 N.am    1  UNL1       -0.2707
     39 C          63.1098   89.9855   14.8190 C.2     1  UNL1        0.4017
     40 O          64.5553   90.3790   14.7439 O.2     1  UNL1       -0.2264
     41 H          61.2997   89.7984   13.6424 H       1  UNL1        0.1527
     42 O          62.5256   89.5208   16.1201 O.3     1  UNL1       -0.4306
     43 C          63.1076   88.3287   16.8203 C.3     1  UNL1        0.2573
@<TRIPOS>BOND
     1    33    34    1
     2    34    27    1
     3    27    28   ar
     4    28    29   ar
     5    29    30   ar
     6    30    31   ar
     7    31    20    1
     8    20    21   ar
     9    21    22    1
    10    21    23   ar
    11    23    24   ar
    12    24    25   ar
    13    25    26   ar
    14    26     1    1
    15     1     2    1
    16     1    35    1
    17    35    36    1
    18    36    37    1
    19    37    38    1
    20    38    39   am
    21    39    40    2
    22    39    42    1
    23    42    43    1
    24     4     1    1
    25     4     5    1
    26     5     6    1
    27     6     7    1
    28     7     8    1
    29     8     9   am
    30     9    10    2
    31     9    12    1
    32    12    13    1
    33    13    14    1
    34    13    16    1
    35    16    17    1
    36     8    11    1
    37    31    32   ar
    38    32    27   ar
    39    26    20   ar
    40    11     4    1
    41     2     3    1
    42    38    41    1
    43    14    15    1
    44    17    18    1
    45    17    19    1
@<TRIPOS>MOLECULE
*****
 43 45 0 0 0
SMALL
GASTEIGER

@<TRIPOS>ATOM
      1 C          62.5331   89.2765   10.5799 C.3     1  UNL1        0.1086
      2 O          63.6062   89.3169    9.5327 O.3     1  UNL1       -0.3826
      3 H          63.8089   90.2397    9.3128 H       1  UNL1        0.2107
      4 C          62.5800   87.7773   10.5702 C.3     1  UNL1        0.0485
      5 C          62.4979   87.0327    9.2707 C.3     1  UNL1        0.0061
      6 C          62.5449   85.5334    9.2611 C.3     1  UNL1        0.0217
      7 C          62.6740   84.7789   10.5510 C.3     1  UNL1        0.0934
      8 N          62.7561   85.5235   11.8505 N.am    1  UNL1       -0.2794
      9 C          62.8853   84.7688   13.1405 C.2     1  UNL1        0.2281
     10 O          62.9674   85.5134   14.4400 O.2     1  UNL1       -0.2748
     11 C          62.7092   87.0227   11.8602 C.3     1  UNL1        0.0960
     12 C          62.9322   83.2696   13.1308 C.3     1  UNL1        0.1158
     13 C          62.4070   82.4953   14.3032 C.3     1  UNL1        0.1350
     14 O          62.6925   82.9629   15.6995 O.3     1  UNL1       -0.3825
     15 H          62.2838   82.3539   16.3344 H       1  UNL1        0.2104
     16 C          61.5963   81.2532   14.0792 C.3     1  UNL1        0.0952
     17 N          62.1727   80.1128   13.2936 N.3     1  UNL1       -0.3191
     18 H          62.3118   80.4027   12.3256 H       1  UNL1        0.1189
     19 H          61.5304   79.3210   13.3225 H       1  UNL1        0.1189
     20 C          60.0610   88.8448   11.2528 C.ar    1  UNL1        0.0257
     21 C          58.9878   88.8044   12.3000 C.ar    1  UNL1        0.1398
     22 F          57.5890   88.4131   11.9256 F       1  UNL1       -0.2042
     23 C          59.3135   89.1553   13.7216 C.ar    1  UNL1        0.0296
     24 C          60.7123   89.5465   14.0959 C.ar    1  UNL1        0.0021
     25 C          61.7855   89.5869   13.0487 C.ar    1  UNL1       -0.0019
     26 C          61.4599   89.2361   11.6271 C.ar    1  UNL1        0.0039
     27 C          59.5325   89.1814    7.3339 C.ar    1  UNL1       -0.0222
     28 C          59.0841   87.7925    6.9880 C.ar    1  UNL1       -0.0043
     29 C          58.9613   86.7543    8.0637 C.ar    1  UNL1       -0.0003
     30 C          59.2870   87.1051    9.4853 C.ar    1  UNL1        0.0000
     31 C          59.7354   88.4940    9.8312 C.ar    1  UNL1        0.0016
     32 C          59.8582   89.5322    8.7555 C.ar    1  UNL1       -0.0042
     33 C          58.4279   90.7237    5.5588 C.3     1  UNL1        0.0050
     34 C          59.6553   90.2196    6.2582 C.3     1  UNL1        0.0264
     35 C          62.4861   90.7757   10.5895 C.3     1  UNL1        0.0330
     36 C          63.6172   91.5654   10.0004 C.3     1  UNL1        0.0241
     37 C          64.6134   92.2344   10.9002 C.3     1  UNL1        0.0928
     38 N          65.3244   93.4732   10.4422 N.am    1  UNL1       -0.2707
     39 C          66.8100   93.5915   10.6120 C.2     1  UNL1        0.4017
     40 O          67.5848   92.4709   11.2399 O.2     1  UNL1       -0.2264
     41 H          64.8160   94.2087   10.0302 H       1  UNL1        0.1527
     42 O          67.5210   94.8304   10.1540 O.3     1  UNL1       -0.4306
     43 C          67.5761   95.1668    8.6932 C.3     1  UNL1        0.2573
@<TRIPOS>BOND
     1    33    34    1
     2    34    27    1
     3    27    28   ar
     4    28    29   ar
     5    29    30   ar
     6    30    31   ar
     7    31    20    1
     8    20    21   ar
     9    21    22    1
    10    21    23   ar
    11    23    24   ar
    12    24    25   ar
    13    25    26   ar
    14    26     1    1
    15     1     2    1
    16     1    35    1
    17    35    36    1
    18    36    37    1
    19    37    38    1
    20    38    39   am
    21    39    40    2
    22    39    42    1
    23    42    43    1
    24     4     1    1
    25     4     5    1
    26     5     6    1
    27     6     7    1
    28     7     8    1
    29     8     9   am
    30     9    10    2
    31     9    12    1
    32    12    13    1
    33    13    14    1
    34    13    16    1
    35    16    17    1
    36     8    11    1
    37    31    32   ar
    38    32    27   ar
    39    26    20   ar
    40    11     4    1
    41     2     3    1
    42    38    41    1
    43    14    15    1
    44    17    18    1
    45    17    19    1
