@<TRIPOS>MOLECULE
*****
 22 24 0 0 0
SMALL
GASTEIGER

@<TRIPOS>ATOM
      1 C          65.0410   91.9655   11.9239 C.ar    1  UNL1        0.1447
      2 C          65.6054   92.2089   13.2921 C.ar    1  UNL1        0.0749
      3 C          66.8019   92.9824   13.7612 C.ar    1  UNL1        0.0468
      4 C          66.8694   92.8706   15.2555 C.ar    1  UNL1        0.1799
      5 O          65.7145   92.0280   15.7100 O.2     1  UNL1       -0.4471
      6 C          64.9334   91.6191   14.4965 C.ar    1  UNL1        0.1851
      7 C          63.6969   90.7858   14.3326 C.ar    1  UNL1        0.2078
      8 C          63.1325   90.5424   12.9643 C.ar    1  UNL1        0.1883
      9 O          61.8960   89.7091   12.8004 O.2     1  UNL1       -0.4177
     10 C          61.3316   89.4656   11.4322 C.ar    1  UNL1        0.3460
     11 O          60.0952   88.6324   11.2683 O.2     1  UNL1       -0.2445
     12 C          62.0036   90.0555   10.2277 C.ar    1  UNL1        0.0825
     13 C          63.2401   90.8887   10.3917 C.ar    1  UNL1        0.0128
     14 C          63.8045   91.1322   11.7600 C.ar    1  UNL1        0.0721
     15 C          65.7759   94.0443   10.5497 C.3     1  UNL1        0.2525
     16 O          65.7130   92.5553   10.7194 O.3     1  UNL1       -0.4712
     17 O          63.0249   90.1959   15.5369 O.3     1  UNL1       -0.4645
     18 C          63.4102   88.8277   16.0159 C.3     1  UNL1        0.2315
     19 C          64.1706   87.9032   15.1119 C.2     1  UNL1        0.0122
     20 C          64.1890   86.4294   15.3904 C.2     1  UNL1       -0.0443
     21 C          64.9494   85.5048   14.4865 C.3     1  UNL1        0.0261
     22 C          63.4471   85.8801   16.5728 C.3     1  UNL1        0.0261
@<TRIPOS>BOND
     1    15    16    1
     2    16     1    1
     3     1     2   ar
     4     2     3   ar
     5     3     4   ar
     6     4     5   ar
     7     5     6   ar
     8     6     7   ar
     9     7    17    1
    10    17    18    1
    11    18    19    1
    12    19    20    2
    13    20    21    1
    14    20    22    1
    15     7     8   ar
    16     8     9   ar
    17     9    10   ar
    18    10    11    2
    19    10    12   ar
    20    12    13   ar
    21    13    14   ar
    22    14     1   ar
    23     6     2   ar
    24    14     8   ar
@<TRIPOS>MOLECULE
*****
 22 24 0 0 0
SMALL
GASTEIGER

@<TRIPOS>ATOM
      1 C          62.2882   89.3849   11.2203 C.ar    1  UNL1        0.1447
      2 C          63.0098   88.6571   12.3155 C.ar    1  UNL1        0.0749
      3 C          63.8937   89.1386   13.4277 C.ar    1  UNL1        0.0468
      4 C          64.3334   87.9437   14.2206 C.ar    1  UNL1        0.1799
      5 O          63.7214   86.7237   13.5985 O.2     1  UNL1       -0.4471
      6 C          62.9033   87.1646   12.4211 C.ar    1  UNL1        0.1851
      7 C          62.0752   86.3999   11.4314 C.ar    1  UNL1        0.2078
      8 C          61.3536   87.1278   10.3362 C.ar    1  UNL1        0.1883
      9 O          60.5255   86.3630    9.3465 O.2     1  UNL1       -0.4177
     10 C          59.8039   87.0908    8.2512 C.ar    1  UNL1        0.3460
     11 O          58.9758   86.3261    7.2616 O.2     1  UNL1       -0.2445
     12 C          59.9103   88.5833    8.1456 C.ar    1  UNL1        0.0825
     13 C          60.7384   89.3480    9.1353 C.ar    1  UNL1        0.0128
     14 C          61.4601   88.6202   10.2306 C.ar    1  UNL1        0.0721
     15 C          63.5541   91.4974   10.3927 C.3     1  UNL1        0.2525
     16 O          62.3946   90.8775   11.1147 O.3     1  UNL1       -0.4712
     17 O          61.9688   84.9075   11.5369 O.3     1  UNL1       -0.4645
     18 C          63.2112   84.0683   11.5835 C.3     1  UNL1        0.2315
     19 C          63.1061   82.5720   11.5811 C.2     1  UNL1        0.0122
     20 C          62.7180   81.8454   12.8347 C.2     1  UNL1       -0.0443
     21 C          62.6129   80.3491   12.8324 C.3     1  UNL1        0.0261
     22 C          62.4351   82.6153   14.0907 C.3     1  UNL1        0.0261
@<TRIPOS>BOND
     1    15    16    1
     2    16     1    1
     3     1     2   ar
     4     2     3   ar
     5     3     4   ar
     6     4     5   ar
     7     5     6   ar
     8     6     7   ar
     9     7    17    1
    10    17    18    1
    11    18    19    1
    12    19    20    2
    13    20    21    1
    14    20    22    1
    15     7     8   ar
    16     8     9   ar
    17     9    10   ar
    18    10    11    2
    19    10    12   ar
    20    12    13   ar
    21    13    14   ar
    22    14     1   ar
    23     6     2   ar
    24    14     8   ar
@<TRIPOS>MOLECULE
*****
 22 24 0 0 0
SMALL
GASTEIGER

@<TRIPOS>ATOM
      1 C          63.9069   86.1198   14.1291 C.ar    1  UNL1        0.1447
      2 C          63.3441   85.1123   13.1710 C.ar    1  UNL1        0.0749
      3 C          63.2276   83.6184   13.2391 C.ar    1  UNL1        0.0468
      4 C          62.5711   83.1466   11.9757 C.ar    1  UNL1        0.1799
      5 O          62.2817   84.3489   11.1267 O.2     1  UNL1       -0.4471
      6 C          62.7595   85.5638   11.8655 C.ar    1  UNL1        0.1851
      7 C          62.7378   87.0228   11.5181 C.ar    1  UNL1        0.2078
      8 C          63.3006   88.0304   12.4762 C.ar    1  UNL1        0.1883
      9 O          63.2788   89.4895   12.1287 O.2     1  UNL1       -0.4177
     10 C          63.8417   90.4970   13.0869 C.ar    1  UNL1        0.3460
     11 O          63.8199   91.9561   12.7395 O.2     1  UNL1       -0.2445
     12 C          64.4263   90.0456   14.3924 C.ar    1  UNL1        0.0825
     13 C          64.4480   88.5866   14.7398 C.ar    1  UNL1        0.0128
     14 C          63.8852   87.5789   13.7817 C.ar    1  UNL1        0.0721
     15 C          63.6242   85.5845   16.6557 C.3     1  UNL1        0.2525
     16 O          64.4915   85.6684   15.4347 O.3     1  UNL1       -0.4712
     17 O          62.1532   87.4743   10.2125 O.3     1  UNL1       -0.4645
     18 C          60.7825   88.0825   10.1749 C.3     1  UNL1        0.2315
     19 C          60.3904   88.9780    9.0371 C.2     1  UNL1        0.0122
     20 C          59.6325   88.4189    7.8696 C.2     1  UNL1       -0.0443
     21 C          59.2403   89.3143    6.7319 C.3     1  UNL1        0.0261
     22 C          59.2666   86.9644    7.8399 C.3     1  UNL1        0.0261
@<TRIPOS>BOND
     1    15    16    1
     2    16     1    1
     3     1     2   ar
     4     2     3   ar
     5     3     4   ar
     6     4     5   ar
     7     5     6   ar
     8     6     7   ar
     9     7    17    1
    10    17    18    1
    11    18    19    1
    12    19    20    2
    13    20    21    1
    14    20    22    1
    15     7     8   ar
    16     8     9   ar
    17     9    10   ar
    18    10    11    2
    19    10    12   ar
    20    12    13   ar
    21    13    14   ar
    22    14     1   ar
    23     6     2   ar
    24    14     8   ar
@<TRIPOS>MOLECULE
*****
 22 24 0 0 0
SMALL
GASTEIGER

@<TRIPOS>ATOM
      1 C          64.0535   90.3602   13.5021 C.ar    1  UNL1        0.1447
      2 C          63.4571   90.4276   12.1275 C.ar    1  UNL1        0.0749
      3 C          62.4123   89.5956   11.4448 C.ar    1  UNL1        0.0468
      4 C          62.2208   90.1373   10.0592 C.ar    1  UNL1        0.1799
      5 O          63.1473   91.3042    9.8855 O.2     1  UNL1       -0.4471
      6 C          63.9113   91.4836   11.1638 C.ar    1  UNL1        0.1851
      7 C          64.9620   92.4721   11.5749 C.ar    1  UNL1        0.2078
      8 C          65.5584   92.4046   12.9495 C.ar    1  UNL1        0.1883
      9 O          66.6091   93.3932   13.3605 O.2     1  UNL1       -0.4177
     10 C          67.2055   93.3257   14.7352 C.ar    1  UNL1        0.3460
     11 O          68.2562   94.3142   15.1462 O.2     1  UNL1       -0.2445
     12 C          66.7513   92.2697   15.6989 C.ar    1  UNL1        0.0825
     13 C          65.7007   91.2813   15.2879 C.ar    1  UNL1        0.0128
     14 C          65.1042   91.3487   13.9131 C.ar    1  UNL1        0.0721
     15 C          64.3090   87.9839   14.5210 C.3     1  UNL1        0.2525
     16 O          63.5993   89.3042   14.4658 O.3     1  UNL1       -0.4712
     17 O          65.4162   93.5281   10.6112 O.3     1  UNL1       -0.4645
     18 C          66.7924   93.4603   10.0182 C.3     1  UNL1        0.2315
     19 C          67.1906   94.4195    8.9358 C.2     1  UNL1        0.0122
     20 C          67.1575   95.8968    9.1935 C.2     1  UNL1       -0.0443
     21 C          67.5558   96.8560    8.1111 C.3     1  UNL1        0.0261
     22 C          66.7262   96.4150   10.5335 C.3     1  UNL1        0.0261
@<TRIPOS>BOND
     1    15    16    1
     2    16     1    1
     3     1     2   ar
     4     2     3   ar
     5     3     4   ar
     6     4     5   ar
     7     5     6   ar
     8     6     7   ar
     9     7    17    1
    10    17    18    1
    11    18    19    1
    12    19    20    2
    13    20    21    1
    14    20    22    1
    15     7     8   ar
    16     8     9   ar
    17     9    10   ar
    18    10    11    2
    19    10    12   ar
    20    12    13   ar
    21    13    14   ar
    22    14     1   ar
    23     6     2   ar
    24    14     8   ar
@<TRIPOS>MOLECULE
*****
 22 24 0 0 0
SMALL
GASTEIGER

@<TRIPOS>ATOM
      1 C          63.7021   83.6488   10.7827 C.ar    1  UNL1        0.1447
      2 C          63.0827   84.5227    9.7327 C.ar    1  UNL1        0.0749
      3 C          62.8908   84.3360    8.2568 C.ar    1  UNL1        0.0468
      4 C          62.2031   85.5566    7.7208 C.ar    1  UNL1        0.1799
      5 O          61.9701   86.4977    8.8654 O.2     1  UNL1       -0.4471
      6 C          62.5137   85.8587   10.1089 C.ar    1  UNL1        0.1851
      7 C          62.5641   86.3207   11.5351 C.ar    1  UNL1        0.2078
      8 C          63.1835   85.4467   12.5851 C.ar    1  UNL1        0.1883
      9 O          63.2338   85.9088   14.0113 O.2     1  UNL1       -0.4177
     10 C          63.8532   85.0348   15.0613 C.ar    1  UNL1        0.3460
     11 O          63.9036   85.4968   16.4875 O.2     1  UNL1       -0.2445
     12 C          64.4223   83.6988   14.6852 C.ar    1  UNL1        0.0825
     13 C          64.3719   83.2369   13.2590 C.ar    1  UNL1        0.0128
     14 C          63.7525   84.1108   12.2090 C.ar    1  UNL1        0.0721
     15 C          63.4009   81.0914   10.4376 C.3     1  UNL1        0.2525
     16 O          64.2711   82.3128   10.4066 O.3     1  UNL1       -0.4712
     17 O          61.9951   87.6566   11.9112 O.3     1  UNL1       -0.4645
     18 C          62.8794   88.8679   11.9379 C.3     1  UNL1        0.2315
     19 C          63.6641   89.1964   13.1734 C.2     1  UNL1        0.0122
     20 C          64.3536   90.5232   13.2932 C.2     1  UNL1       -0.0443
     21 C          65.1383   90.8518   14.5286 C.3     1  UNL1        0.0261
     22 C          64.2584   91.5213   12.1774 C.3     1  UNL1        0.0261
@<TRIPOS>BOND
     1    15    16    1
     2    16     1    1
     3     1     2   ar
     4     2     3   ar
     5     3     4   ar
     6     4     5   ar
     7     5     6   ar
     8     6     7   ar
     9     7    17    1
    10    17    18    1
    11    18    19    1
    12    19    20    2
    13    20    21    1
    14    20    22    1
    15     7     8   ar
    16     8     9   ar
    17     9    10   ar
    18    10    11    2
    19    10    12   ar
    20    12    13   ar
    21    13    14   ar
    22    14     1   ar
    23     6     2   ar
    24    14     8   ar
@<TRIPOS>MOLECULE
*****
 22 24 0 0 0
SMALL
GASTEIGER

@<TRIPOS>ATOM
      1 C          62.4025   85.8642   11.4337 C.ar    1  UNL1        0.1447
      2 C          63.1339   86.5371   12.5571 C.ar    1  UNL1        0.0749
      3 C          63.9255   85.9916   13.7085 C.ar    1  UNL1        0.0468
      4 C          64.4283   87.1514   14.5160 C.ar    1  UNL1        0.1799
      5 O          63.9475   88.4136   13.8637 O.2     1  UNL1       -0.4471
      6 C          63.1475   88.0340   12.6530 C.ar    1  UNL1        0.1851
      7 C          62.4296   88.8579   11.6255 C.ar    1  UNL1        0.2078
      8 C          61.6982   88.1850   10.5020 C.ar    1  UNL1        0.1883
      9 O          60.9803   89.0090    9.4745 O.2     1  UNL1       -0.4177
     10 C          60.2489   88.3360    8.3511 C.ar    1  UNL1        0.3460
     11 O          59.5310   89.1599    7.3235 O.2     1  UNL1       -0.2445
     12 C          60.2352   86.8391    8.2551 C.ar    1  UNL1        0.0825
     13 C          60.9531   86.0152    9.2826 C.ar    1  UNL1        0.0128
     14 C          61.6846   86.6882   10.4061 C.ar    1  UNL1        0.0721
     15 C          63.5622   83.6429   10.7473 C.3     1  UNL1        0.2525
     16 O          62.3888   84.3673   11.3377 O.3     1  UNL1       -0.4712
     17 O          62.4432   90.3548   11.7214 O.3     1  UNL1       -0.4645
     18 C          63.6872   91.1174   11.3736 C.3     1  UNL1        0.2315
     19 C          64.5068   91.7503   12.4587 C.2     1  UNL1        0.0122
     20 C          65.6450   92.6609   12.1046 C.2     1  UNL1       -0.0443
     21 C          66.4647   93.2939   13.1897 C.3     1  UNL1        0.0261
     22 C          65.9634   92.9386   10.6652 C.3     1  UNL1        0.0261
@<TRIPOS>BOND
     1    15    16    1
     2    16     1    1
     3     1     2   ar
     4     2     3   ar
     5     3     4   ar
     6     4     5   ar
     7     5     6   ar
     8     6     7   ar
     9     7    17    1
    10    17    18    1
    11    18    19    1
    12    19    20    2
    13    20    21    1
    14    20    22    1
    15     7     8   ar
    16     8     9   ar
    17     9    10   ar
    18    10    11    2
    19    10    12   ar
    20    12    13   ar
    21    13    14   ar
    22    14     1   ar
    23     6     2   ar
    24    14     8   ar
@<TRIPOS>MOLECULE
*****
 22 24 0 0 0
SMALL
GASTEIGER

@<TRIPOS>ATOM
      1 C          63.7791   85.6037   14.4196 C.ar    1  UNL1        0.1447
      2 C          63.3597   84.2816   13.8485 C.ar    1  UNL1        0.0749
      3 C          63.4197   82.8869   14.3972 C.ar    1  UNL1        0.0468
      4 C          62.8500   81.9583   13.3661 C.ar    1  UNL1        0.1799
      5 O          62.4380   82.7792   12.1801 O.2     1  UNL1       -0.4471
      6 C          62.7530   84.2151   12.4783 C.ar    1  UNL1        0.1851
      7 C          62.5657   85.4706   11.6792 C.ar    1  UNL1        0.2078
      8 C          62.9851   86.7927   12.2503 C.ar    1  UNL1        0.1883
      9 O          62.7979   88.0482   11.4511 O.2     1  UNL1       -0.4177
     10 C          63.2173   89.3703   12.0222 C.ar    1  UNL1        0.3460
     11 O          63.0301   90.6258   11.2231 O.2     1  UNL1       -0.2445
     12 C          63.8240   89.4369   13.3924 C.ar    1  UNL1        0.0825
     13 C          64.0113   88.1814   14.1916 C.ar    1  UNL1        0.0128
     14 C          63.5918   86.8593   13.6204 C.ar    1  UNL1        0.0721
     15 C          63.5108   85.8947   16.9874 C.3     1  UNL1        0.2525
     16 O          64.3858   85.6704   15.7899 O.3     1  UNL1       -0.4712
     17 O          61.9590   85.4041   10.3090 O.3     1  UNL1       -0.4645
     18 C          62.7324   85.8959    9.1216 C.3     1  UNL1        0.2315
     19 C          62.7895   85.0713    7.8698 C.2     1  UNL1        0.0122
     20 C          61.5973   85.0025    6.9621 C.2     1  UNL1       -0.0443
     21 C          61.6543   84.1779    5.7104 C.3     1  UNL1        0.0261
     22 C          60.3480   85.7583    7.3062 C.3     1  UNL1        0.0261
@<TRIPOS>BOND
     1    15    16    1
     2    16     1    1
     3     1     2   ar
     4     2     3   ar
     5     3     4   ar
     6     4     5   ar
     7     5     6   ar
     8     6     7   ar
     9     7    17    1
    10    17    18    1
    11    18    19    1
    12    19    20    2
    13    20    21    1
    14    20    22    1
    15     7     8   ar
    16     8     9   ar
    17     9    10   ar
    18    10    11    2
    19    10    12   ar
    20    12    13   ar
    21    13    14   ar
    22    14     1   ar
    23     6     2   ar
    24    14     8   ar
@<TRIPOS>MOLECULE
*****
 22 24 0 0 0
SMALL
GASTEIGER

@<TRIPOS>ATOM
      1 C          62.0761   87.0032   10.7530 C.ar    1  UNL1        0.1447
      2 C          62.2364   88.4944   10.7270 C.ar    1  UNL1        0.0749
      3 C          61.7838   89.5356    9.7466 C.ar    1  UNL1        0.0468
      4 C          62.2365   90.8741   10.2500 C.ar    1  UNL1        0.1799
      5 O          62.9689   90.6602   11.5414 O.2     1  UNL1       -0.4471
      6 C          62.9688   89.1895   11.8363 C.ar    1  UNL1        0.1851
      7 C          63.5411   88.3933   12.9715 C.ar    1  UNL1        0.2078
      8 C          63.3808   86.9022   12.9974 C.ar    1  UNL1        0.1883
      9 O          63.9531   86.1060   14.1327 O.2     1  UNL1       -0.4177
     10 C          63.7929   84.6149   14.1587 C.ar    1  UNL1        0.3460
     11 O          64.3651   83.8187   15.2939 O.2     1  UNL1       -0.2445
     12 C          63.0604   83.9197   13.0495 C.ar    1  UNL1        0.0825
     13 C          62.4882   84.7159   11.9143 C.ar    1  UNL1        0.0128
     14 C          62.6484   86.2071   11.8883 C.ar    1  UNL1        0.0721
     15 C          62.0828   85.8769    8.4118 C.3     1  UNL1        0.2525
     16 O          61.3437   86.3081    9.6438 O.3     1  UNL1       -0.4712
     17 O          64.2735   89.0884   14.0807 O.3     1  UNL1       -0.4645
     18 C          64.7902   90.4822   13.8804 C.3     1  UNL1        0.2315
     19 C          65.2965   91.2700   15.0522 C.2     1  UNL1        0.0122
     20 C          66.6236   91.9647   14.9718 C.2     1  UNL1       -0.0443
     21 C          67.1299   92.7525   16.1435 C.3     1  UNL1        0.0261
     22 C          67.4443   91.8715   13.7196 C.3     1  UNL1        0.0261
@<TRIPOS>BOND
     1    15    16    1
     2    16     1    1
     3     1     2   ar
     4     2     3   ar
     5     3     4   ar
     6     4     5   ar
     7     5     6   ar
     8     6     7   ar
     9     7    17    1
    10    17    18    1
    11    18    19    1
    12    19    20    2
    13    20    21    1
    14    20    22    1
    15     7     8   ar
    16     8     9   ar
    17     9    10   ar
    18    10    11    2
    19    10    12   ar
    20    12    13   ar
    21    13    14   ar
    22    14     1   ar
    23     6     2   ar
    24    14     8   ar
@<TRIPOS>MOLECULE
*****
 22 24 0 0 0
SMALL
GASTEIGER

@<TRIPOS>ATOM
      1 C          62.8534   85.2115    9.3586 C.ar    1  UNL1        0.1447
      2 C          63.4326   84.1719   10.2718 C.ar    1  UNL1        0.0749
      3 C          64.0308   82.8225   10.0049 C.ar    1  UNL1        0.0468
      4 C          64.4446   82.2307   11.3196 C.ar    1  UNL1        0.1799
      5 O          64.1020   83.2143   12.3991 O.2     1  UNL1       -0.4471
      6 C          63.4766   84.4140   11.7515 C.ar    1  UNL1        0.1851
      7 C          62.9415   85.6957   12.3180 C.ar    1  UNL1        0.2078
      8 C          62.3623   86.7353   11.4048 C.ar    1  UNL1        0.1883
      9 O          61.8272   88.0170   11.9714 O.2     1  UNL1       -0.4177
     10 C          61.2480   89.0565   11.0582 C.ar    1  UNL1        0.3460
     11 O          60.7129   90.3382   11.6247 O.2     1  UNL1       -0.2445
     12 C          61.2040   88.8145    9.5785 C.ar    1  UNL1        0.0825
     13 C          61.7391   87.5328    9.0120 C.ar    1  UNL1        0.0128
     14 C          62.3183   86.4932    9.9252 C.ar    1  UNL1        0.0721
     15 C          61.4898   84.9034    7.1688 C.3     1  UNL1        0.2525
     16 O          62.8094   84.9694    7.8789 O.3     1  UNL1       -0.4712
     17 O          62.9855   85.9378   13.7977 O.3     1  UNL1       -0.4645
     18 C          64.1791   86.6061   14.4131 C.3     1  UNL1        0.2315
     19 C          64.2962   88.1013   14.3902 C.2     1  UNL1        0.0122
     20 C          63.7777   88.9119   15.5409 C.2     1  UNL1       -0.0443
     21 C          63.8948   90.4072   15.5181 C.3     1  UNL1        0.0261
     22 C          63.1420   88.2272   16.7145 C.3     1  UNL1        0.0261
@<TRIPOS>BOND
     1    15    16    1
     2    16     1    1
     3     1     2   ar
     4     2     3   ar
     5     3     4   ar
     6     4     5   ar
     7     5     6   ar
     8     6     7   ar
     9     7    17    1
    10    17    18    1
    11    18    19    1
    12    19    20    2
    13    20    21    1
    14    20    22    1
    15     7     8   ar
    16     8     9   ar
    17     9    10   ar
    18    10    11    2
    19    10    12   ar
    20    12    13   ar
    21    13    14   ar
    22    14     1   ar
    23     6     2   ar
    24    14     8   ar
