@<TRIPOS>MOLECULE
*****
 25 26 0 0 0
SMALL
GASTEIGER

@<TRIPOS>ATOM
      1 N          63.4075   87.3783   13.3206 N.am    1  UNL1       -0.3024
      2 C          64.0514   86.2179   14.0197 C.2     1  UNL1        0.2466
      3 O          65.3020   86.4255   14.8216 O.2     1  UNL1       -0.2701
      4 H          62.5867   87.2421   12.7943 H       1  UNL1        0.1497
      5 C          63.4448   84.8499   13.9169 C.ar    1  UNL1        0.0639
      6 C          63.6015   84.0528   12.6558 C.ar    1  UNL1        0.0053
      7 C          62.9949   82.6848   12.5531 C.ar    1  UNL1        0.0041
      8 C          62.2317   82.1139   13.7113 C.ar    1  UNL1        0.0723
      9 C          62.0750   82.9109   14.9723 C.ar    1  UNL1        0.0154
     10 C          62.6816   84.2790   15.0751 C.ar    1  UNL1        0.0620
     11 CL         62.5249   85.0761   16.3360 Cl      1  UNL1       -0.0821
     12 C          61.6251   80.7458   13.6086 C.3     1  UNL1        0.4186
     13 F          61.0185   79.3778   13.5058 F       1  UNL1       -0.1659
     14 F          60.5253   81.1636   14.5391 F       1  UNL1       -0.1659
     15 F          62.7249   80.3281   12.6780 F       1  UNL1       -0.1659
     16 N          65.2272   91.4824   13.6290 N.3     1  UNL1       -0.2751
     17 C          65.5149   90.4534   14.6817 C.3     1  UNL1        0.0737
     18 C          64.9083   89.0854   14.5790 C.3     1  UNL1        0.0369
     19 C          64.0140   88.7464   13.4234 C.3     1  UNL1        0.0746
     20 C          63.7264   89.7754   12.3706 C.3     1  UNL1        0.0369
     21 C          64.3330   91.1434   12.4734 C.3     1  UNL1        0.0737
     22 C          65.6132   93.0586   12.2627 C.3     1  UNL1        0.0160
     23 C          65.8338   92.8504   13.7317 C.3     1  UNL1        0.0455
     24 C          66.0544   92.6422   15.2007 C.3     1  UNL1        0.0160
     25 C          66.4404   94.2185   13.8345 C.3     1  UNL1        0.0160
@<TRIPOS>BOND
     1    22    23    1
     2    23    24    1
     3    23    25    1
     4    23    16    1
     5    16    17    1
     6    17    18    1
     7    18    19    1
     8    19     1    1
     9     1     2   am
    10     2     3    2
    11     2     5    1
    12     5     6   ar
    13     6     7   ar
    14     7     8   ar
    15     8    12    1
    16    12    13    1
    17    12    14    1
    18    12    15    1
    19     8     9   ar
    20     9    10   ar
    21    10    11    1
    22    19    20    1
    23    20    21    1
    24    21    16    1
    25    10     5   ar
    26     1     4    1
@<TRIPOS>MOLECULE
*****
 25 26 0 0 0
SMALL
GASTEIGER

@<TRIPOS>ATOM
      1 N          63.2480   85.8752   12.8692 N.am    1  UNL1       -0.3024
      2 C          64.0480   84.6533   13.2111 C.2     1  UNL1        0.2466
      3 O          65.1962   84.7530   14.1713 O.2     1  UNL1       -0.2701
      4 H          62.4945   85.8097   12.2390 H       1  UNL1        0.1497
      5 C          63.6999   83.3317   12.5929 C.ar    1  UNL1        0.0639
      6 C          64.1128   83.0315   11.1824 C.ar    1  UNL1        0.0053
      7 C          63.7647   81.7099   10.5642 C.ar    1  UNL1        0.0041
      8 C          63.0038   80.6884   11.3566 C.ar    1  UNL1        0.0723
      9 C          62.5910   80.9887   12.7670 C.ar    1  UNL1        0.0154
     10 C          62.9391   82.3103   13.3852 C.ar    1  UNL1        0.0620
     11 CL         62.5263   82.6105   14.7957 Cl      1  UNL1       -0.0821
     12 C          62.6557   79.3668   10.7384 C.3     1  UNL1        0.4186
     13 F          62.3076   78.0452   10.1202 F       1  UNL1       -0.1659
     14 F          62.8456   79.9559    9.3720 F       1  UNL1       -0.1659
     15 F          62.4658   78.7777   12.1048 F       1  UNL1       -0.1659
     16 N          64.2923   89.8401   14.7237 N.3     1  UNL1       -0.2751
     17 C          63.8658   89.7731   13.2872 C.3     1  UNL1        0.0737
     18 C          63.5177   88.4514   12.6690 C.3     1  UNL1        0.0369
     19 C          63.5961   87.1968   13.4874 C.3     1  UNL1        0.0746
     20 C          64.0225   87.2638   14.9239 C.3     1  UNL1        0.0369
     21 C          64.3706   88.5854   15.5420 C.3     1  UNL1        0.0737
     22 C          65.6481   91.4035   14.2575 C.3     1  UNL1        0.0160
     23 C          64.6404   91.1617   15.3419 C.3     1  UNL1        0.0455
     24 C          63.6326   90.9199   16.4263 C.3     1  UNL1        0.0160
     25 C          64.9884   92.4833   15.9601 C.3     1  UNL1        0.0160
@<TRIPOS>BOND
     1    22    23    1
     2    23    24    1
     3    23    25    1
     4    23    16    1
     5    16    17    1
     6    17    18    1
     7    18    19    1
     8    19     1    1
     9     1     2   am
    10     2     3    2
    11     2     5    1
    12     5     6   ar
    13     6     7   ar
    14     7     8   ar
    15     8    12    1
    16    12    13    1
    17    12    14    1
    18    12    15    1
    19     8     9   ar
    20     9    10   ar
    21    10    11    1
    22    19    20    1
    23    20    21    1
    24    21    16    1
    25    10     5   ar
    26     1     4    1
@<TRIPOS>MOLECULE
*****
 25 26 0 0 0
SMALL
GASTEIGER

@<TRIPOS>ATOM
      1 N          63.1928   87.1798   13.3489 N.am    1  UNL1       -0.3024
      2 C          63.9234   85.9953   13.9083 C.2     1  UNL1        0.2466
      3 O          65.2834   86.1715   14.5164 O.2     1  UNL1       -0.2701
      4 H          62.3003   87.0641   12.9499 H       1  UNL1        0.1497
      5 C          63.2942   84.6345   13.8598 C.ar    1  UNL1        0.0639
      6 C          62.8638   83.9615   15.1294 C.ar    1  UNL1        0.0053
      7 C          62.2346   82.6007   15.0808 C.ar    1  UNL1        0.0041
      8 C          62.0358   81.9129   13.7626 C.ar    1  UNL1        0.0723
      9 C          62.4663   82.5859   12.4931 C.ar    1  UNL1        0.0154
     10 C          63.0955   83.9467   12.5417 C.ar    1  UNL1        0.0620
     11 CL         63.5260   84.6197   11.2722 Cl      1  UNL1       -0.0821
     12 C          61.4066   80.5521   13.7140 C.3     1  UNL1        0.4186
     13 F          60.7774   79.1913   13.6654 F       1  UNL1       -0.1659
     14 F          62.6929   79.9757   13.2009 F       1  UNL1       -0.1659
     15 F          60.1204   81.1285   14.2271 F       1  UNL1       -0.1659
     16 N          65.0804   91.2622   13.4947 N.3     1  UNL1       -0.2751
     17 C          64.2237   90.8733   12.3265 C.3     1  UNL1        0.0737
     18 C          63.5944   89.5125   12.2779 C.3     1  UNL1        0.0369
     19 C          63.8220   88.5406   13.3975 C.3     1  UNL1        0.0746
     20 C          64.6788   88.9294   14.5657 C.3     1  UNL1        0.0369
     21 C          65.3080   90.2902   14.6143 C.3     1  UNL1        0.0737
     22 C          65.4460   92.7972   12.0770 C.3     1  UNL1        0.0160
     23 C          65.7096   92.6229   13.5433 C.3     1  UNL1        0.0455
     24 C          65.9733   92.4487   15.0096 C.3     1  UNL1        0.0160
     25 C          66.3388   93.9837   13.5919 C.3     1  UNL1        0.0160
@<TRIPOS>BOND
     1    22    23    1
     2    23    24    1
     3    23    25    1
     4    23    16    1
     5    16    17    1
     6    17    18    1
     7    18    19    1
     8    19     1    1
     9     1     2   am
    10     2     3    2
    11     2     5    1
    12     5     6   ar
    13     6     7   ar
    14     7     8   ar
    15     8    12    1
    16    12    13    1
    17    12    14    1
    18    12    15    1
    19     8     9   ar
    20     9    10   ar
    21    10    11    1
    22    19    20    1
    23    20    21    1
    24    21    16    1
    25    10     5   ar
    26     1     4    1
@<TRIPOS>MOLECULE
*****
 25 26 0 0 0
SMALL
GASTEIGER

@<TRIPOS>ATOM
      1 N          63.5131   90.1024   12.3129 N.am    1  UNL1       -0.3024
      2 C          64.4030   91.2390   11.9053 C.2     1  UNL1        0.2466
      3 O          64.3501   91.7670   10.5023 O.2     1  UNL1       -0.2701
      4 H          63.5478   89.7558   13.2337 H       1  UNL1        0.1497
      5 C          65.3458   91.8476   12.9007 C.ar    1  UNL1        0.0639
      6 C          65.6899   91.1060   14.1584 C.ar    1  UNL1        0.0053
      7 C          66.6327   91.7146   15.1537 C.ar    1  UNL1        0.0041
      8 C          67.2314   93.0648   14.8914 C.ar    1  UNL1        0.0723
      9 C          66.8872   93.8063   13.6337 C.ar    1  UNL1        0.0154
     10 C          65.9444   93.1977   12.6384 C.ar    1  UNL1        0.0620
     11 CL         65.6003   93.9391   11.3807 Cl      1  UNL1       -0.0821
     12 C          68.1742   93.6734   15.8867 C.3     1  UNL1        0.4186
     13 F          69.1170   94.2820   16.8821 F       1  UNL1       -0.1659
     14 F          68.0873   94.9862   15.1664 F       1  UNL1       -0.1659
     15 F          68.2611   92.3606   16.6071 F       1  UNL1       -0.1659
     16 N          60.6847   88.2766    9.3268 N.3     1  UNL1       -0.2751
     17 C          60.5898   89.7374    9.6537 C.3     1  UNL1        0.0737
     18 C          61.5326   90.3460   10.6491 C.3     1  UNL1        0.0369
     19 C          62.5703   89.4938   11.3175 C.3     1  UNL1        0.0746
     20 C          62.6652   88.0329   10.9906 C.3     1  UNL1        0.0369
     21 C          61.7224   87.4243    9.9953 C.3     1  UNL1        0.0737
     22 C          60.0573   86.3029    8.8674 C.3     1  UNL1        0.0160
     23 C          59.7420   87.6680    8.3315 C.3     1  UNL1        0.0455
     24 C          59.4266   89.0330    7.7955 C.3     1  UNL1        0.0160
     25 C          58.7992   87.0594    7.3361 C.3     1  UNL1        0.0160
@<TRIPOS>BOND
     1    22    23    1
     2    23    24    1
     3    23    25    1
     4    23    16    1
     5    16    17    1
     6    17    18    1
     7    18    19    1
     8    19     1    1
     9     1     2   am
    10     2     3    2
    11     2     5    1
    12     5     6   ar
    13     6     7   ar
    14     7     8   ar
    15     8    12    1
    16    12    13    1
    17    12    14    1
    18    12    15    1
    19     8     9   ar
    20     9    10   ar
    21    10    11    1
    22    19    20    1
    23    20    21    1
    24    21    16    1
    25    10     5   ar
    26     1     4    1
@<TRIPOS>MOLECULE
*****
 25 26 0 0 0
SMALL
GASTEIGER

@<TRIPOS>ATOM
      1 N          63.6485   90.7744   11.5299 N.am    1  UNL1       -0.3024
      2 C          64.1423   90.2800   12.8572 C.2     1  UNL1        0.2466
      3 O          63.6394   88.9782   13.4070 O.2     1  UNL1       -0.2701
      4 H          63.9785   91.6289   11.1691 H       1  UNL1        0.1497
      5 C          65.1391   91.0875   13.6347 C.ar    1  UNL1        0.0639
      6 C          66.3628   91.6254   12.9541 C.ar    1  UNL1        0.0053
      7 C          67.3596   92.4328   13.7316 C.ar    1  UNL1        0.0041
      8 C          67.1326   92.7023   15.1897 C.ar    1  UNL1        0.0723
      9 C          65.9089   92.1643   15.8702 C.ar    1  UNL1        0.0154
     10 C          64.9121   91.3569   15.0927 C.ar    1  UNL1        0.0620
     11 CL         63.6885   90.8190   15.7732 Cl      1  UNL1       -0.0821
     12 C          68.1294   93.5097   15.9672 C.3     1  UNL1        0.4186
     13 F          69.1262   94.3171   16.7447 F       1  UNL1       -0.1659
     14 F          67.7697   94.7255   15.1657 F       1  UNL1       -0.1659
     15 F          68.4890   92.2939   16.7687 F       1  UNL1       -0.1659
     16 N          60.6581   88.3522    9.1974 N.3     1  UNL1       -0.2751
     17 C          60.3253   89.7537    9.6156 C.3     1  UNL1        0.0737
     18 C          61.3221   90.5611   10.3931 C.3     1  UNL1        0.0369
     19 C          62.6517   89.9670   10.7524 C.3     1  UNL1        0.0746
     20 C          62.9845   88.5655   10.3342 C.3     1  UNL1        0.0369
     21 C          61.9877   87.7581    9.5567 C.3     1  UNL1        0.0737
     22 C          59.2327   88.7807    7.6859 C.3     1  UNL1        0.0160
     23 C          59.6614   87.5448    8.4199 C.3     1  UNL1        0.0455
     24 C          60.0900   86.3088    9.1539 C.3     1  UNL1        0.0160
     25 C          58.6646   86.7373    7.6424 C.3     1  UNL1        0.0160
@<TRIPOS>BOND
     1    22    23    1
     2    23    24    1
     3    23    25    1
     4    23    16    1
     5    16    17    1
     6    17    18    1
     7    18    19    1
     8    19     1    1
     9     1     2   am
    10     2     3    2
    11     2     5    1
    12     5     6   ar
    13     6     7   ar
    14     7     8   ar
    15     8    12    1
    16    12    13    1
    17    12    14    1
    18    12    15    1
    19     8     9   ar
    20     9    10   ar
    21    10    11    1
    22    19    20    1
    23    20    21    1
    24    21    16    1
    25    10     5   ar
    26     1     4    1
@<TRIPOS>MOLECULE
*****
 25 26 0 0 0
SMALL
GASTEIGER

@<TRIPOS>ATOM
      1 N          63.1654   85.6141   12.8893 N.am    1  UNL1       -0.3024
      2 C          64.0401   84.4236   13.1487 C.2     1  UNL1        0.2466
      3 O          65.2652   84.5649   14.0027 O.2     1  UNL1       -0.2701
      4 H          62.3613   85.5214   12.3288 H       1  UNL1        0.1497
      5 C          63.6899   83.0917   12.5542 C.ar    1  UNL1        0.0639
      6 C          63.2775   81.9577   13.4453 C.ar    1  UNL1        0.0053
      7 C          62.9273   80.6258   12.8507 C.ar    1  UNL1        0.0041
      8 C          62.9894   80.4280   11.3651 C.ar    1  UNL1        0.0723
      9 C          63.4017   81.5620   10.4741 C.ar    1  UNL1        0.0154
     10 C          63.7520   82.8939   11.0686 C.ar    1  UNL1        0.0620
     11 CL         64.1643   84.0279   10.1776 Cl      1  UNL1       -0.0821
     12 C          62.6392   79.0961   10.7705 C.3     1  UNL1        0.4186
     13 F          62.2889   77.7643   10.1760 F       1  UNL1       -0.1659
     14 F          62.4004   78.5453   12.1451 F       1  UNL1       -0.1659
     15 F          62.8779   79.6470    9.3959 F       1  UNL1       -0.1659
     16 N          64.2161   89.6097   14.6729 N.3     1  UNL1       -0.2751
     17 C          64.3071   88.3678   15.5091 C.3     1  UNL1        0.0737
     18 C          63.9568   87.0359   14.9146 C.3     1  UNL1        0.0369
     19 C          63.5156   86.9460   13.4838 C.3     1  UNL1        0.0746
     20 C          63.4246   88.1879   12.6476 C.3     1  UNL1        0.0369
     21 C          63.7748   89.5197   13.2421 C.3     1  UNL1        0.0737
     22 C          65.5500   91.1773   14.1599 C.3     1  UNL1        0.0160
     23 C          64.5663   90.9415   15.2675 C.3     1  UNL1        0.0455
     24 C          63.5826   90.7058   16.3751 C.3     1  UNL1        0.0160
     25 C          64.9165   92.2734   15.8620 C.3     1  UNL1        0.0160
@<TRIPOS>BOND
     1    22    23    1
     2    23    24    1
     3    23    25    1
     4    23    16    1
     5    16    17    1
     6    17    18    1
     7    18    19    1
     8    19     1    1
     9     1     2   am
    10     2     3    2
    11     2     5    1
    12     5     6   ar
    13     6     7   ar
    14     7     8   ar
    15     8    12    1
    16    12    13    1
    17    12    14    1
    18    12    15    1
    19     8     9   ar
    20     9    10   ar
    21    10    11    1
    22    19    20    1
    23    20    21    1
    24    21    16    1
    25    10     5   ar
    26     1     4    1
@<TRIPOS>MOLECULE
*****
 25 26 0 0 0
SMALL
GASTEIGER

@<TRIPOS>ATOM
      1 N          63.7194   90.6295   11.5553 N.am    1  UNL1       -0.3024
      2 C          63.1740   89.2487   11.7694 C.2     1  UNL1        0.2466
      3 O          63.6424   88.4297   12.9356 O.2     1  UNL1       -0.2701
      4 H          63.4119   91.1670   10.7899 H       1  UNL1        0.1497
      5 C          62.1601   88.6868   10.8174 C.ar    1  UNL1        0.0639
      6 C          61.3976   89.6032    9.9069 C.ar    1  UNL1        0.0053
      7 C          60.3837   89.0413    8.9549 C.ar    1  UNL1        0.0041
      8 C          60.1323   87.5631    8.9134 C.ar    1  UNL1        0.0723
      9 C          60.8948   86.6468    9.8239 C.ar    1  UNL1        0.0154
     10 C          61.9086   87.2087   10.7759 C.ar    1  UNL1        0.0620
     11 CL         62.6711   86.2924   11.6864 Cl      1  UNL1       -0.0821
     12 C          59.1184   87.0012    7.9614 C.3     1  UNL1        0.4186
     13 F          58.1045   86.4393    7.0094 F       1  UNL1       -0.1659
     14 F          58.5222   88.3669    7.7903 F       1  UNL1       -0.1659
     15 F          59.7146   85.6355    8.1325 F       1  UNL1       -0.1659
     16 N          66.7611   92.3151   14.4113 N.3     1  UNL1       -0.2751
     17 C          65.7837   91.2792   14.8819 C.3     1  UNL1        0.0737
     18 C          64.7698   90.7173   13.9299 C.3     1  UNL1        0.0369
     19 C          64.7333   91.1914   12.5073 C.3     1  UNL1        0.0746
     20 C          65.7107   92.2273   12.0367 C.3     1  UNL1        0.0369
     21 C          66.7246   92.7892   12.9887 C.3     1  UNL1        0.0737
     22 C          68.8398   92.7275   14.3175 C.3     1  UNL1        0.0160
     23 C          67.7750   92.8770   15.3633 C.3     1  UNL1        0.0455
     24 C          66.7101   93.0265   16.4092 C.3     1  UNL1        0.0160
     25 C          68.7889   93.4389   16.3153 C.3     1  UNL1        0.0160
@<TRIPOS>BOND
     1    22    23    1
     2    23    24    1
     3    23    25    1
     4    23    16    1
     5    16    17    1
     6    17    18    1
     7    18    19    1
     8    19     1    1
     9     1     2   am
    10     2     3    2
    11     2     5    1
    12     5     6   ar
    13     6     7   ar
    14     7     8   ar
    15     8    12    1
    16    12    13    1
    17    12    14    1
    18    12    15    1
    19     8     9   ar
    20     9    10   ar
    21    10    11    1
    22    19    20    1
    23    20    21    1
    24    21    16    1
    25    10     5   ar
    26     1     4    1
@<TRIPOS>MOLECULE
*****
 25 26 0 0 0
SMALL
GASTEIGER

@<TRIPOS>ATOM
      1 N          57.2991   95.0623   -1.5171 N.am    1  UNL1       -0.3024
      2 C          57.6090   93.6774   -1.0313 C.2     1  UNL1        0.2466
      3 O          56.6012   92.5795   -1.2024 O.2     1  UNL1       -0.2701
      4 H          57.9606   95.7828   -1.4048 H       1  UNL1        0.1497
      5 C          58.9266   93.3902   -0.3745 C.ar    1  UNL1        0.0639
      6 C          59.0038   93.2349    1.1155 C.ar    1  UNL1        0.0053
      7 C          60.3215   92.9478    1.7723 C.ar    1  UNL1        0.0041
      8 C          61.5619   92.8159    0.9392 C.ar    1  UNL1        0.0723
      9 C          61.4846   92.9712   -0.5508 C.ar    1  UNL1        0.0154
     10 C          60.1670   93.2584   -1.2076 C.ar    1  UNL1        0.0620
     11 CL         60.0897   93.4136   -2.6975 Cl      1  UNL1       -0.0821
     12 C          62.8795   92.5288    1.5960 C.3     1  UNL1        0.4186
     13 F          64.1971   92.2416    2.2528 F       1  UNL1       -0.1659
     14 F          62.1635   91.9347    2.7726 F       1  UNL1       -0.1659
     15 F          63.5955   93.1228    0.4194 F       1  UNL1       -0.1659
     16 N          53.3463   95.9237   -3.4875 N.3     1  UNL1       -0.2751
     17 C          53.4532   95.9189   -1.9914 C.3     1  UNL1        0.0737
     18 C          54.7708   95.6317   -1.3346 C.3     1  UNL1        0.0369
     19 C          55.9815   95.3494   -2.1739 C.3     1  UNL1        0.0746
     20 C          55.8746   95.3543   -3.6700 C.3     1  UNL1        0.0369
     21 C          54.5570   95.6414   -4.3269 C.3     1  UNL1        0.0737
     22 C          51.3360   96.0550   -2.8230 C.3     1  UNL1        0.0160
     23 C          52.0286   96.2109   -4.1444 C.3     1  UNL1        0.0455
     24 C          52.7213   96.3667   -5.4657 C.3     1  UNL1        0.0160
     25 C          50.7110   96.4980   -4.8012 C.3     1  UNL1        0.0160
@<TRIPOS>BOND
     1    22    23    1
     2    23    24    1
     3    23    25    1
     4    23    16    1
     5    16    17    1
     6    17    18    1
     7    18    19    1
     8    19     1    1
     9     1     2   am
    10     2     3    2
    11     2     5    1
    12     5     6   ar
    13     6     7   ar
    14     7     8   ar
    15     8    12    1
    16    12    13    1
    17    12    14    1
    18    12    15    1
    19     8     9   ar
    20     9    10   ar
    21    10    11    1
    22    19    20    1
    23    20    21    1
    24    21    16    1
    25    10     5   ar
    26     1     4    1
@<TRIPOS>MOLECULE
*****
 25 26 0 0 0
SMALL
GASTEIGER

@<TRIPOS>ATOM
      1 N          57.7376   93.4429   -1.1009 N.am    1  UNL1       -0.3024
      2 C          58.7453   94.2703   -0.3594 C.2     1  UNL1        0.2466
      3 O          58.6897   95.7673   -0.4372 O.2     1  UNL1       -0.2701
      4 H          57.7740   92.4604   -1.0499 H       1  UNL1        0.1497
      5 C          59.8085   93.6008    0.4599 C.ar    1  UNL1        0.0639
      6 C          59.6096   93.4089    1.9342 C.ar    1  UNL1        0.0053
      7 C          60.6729   92.7394    2.7535 C.ar    1  UNL1        0.0041
      8 C          61.9350   92.2618    2.0985 C.ar    1  UNL1        0.0723
      9 C          62.1339   92.4538    0.6242 C.ar    1  UNL1        0.0154
     10 C          61.0706   93.1232   -0.1951 C.ar    1  UNL1        0.0620
     11 CL         61.2694   93.3152   -1.6694 Cl      1  UNL1       -0.0821
     12 C          62.9983   91.5923    2.9178 C.3     1  UNL1        0.4186
     13 F          64.0615   90.9228    3.7371 F       1  UNL1       -0.1659
     14 F          61.9706   91.2153    3.9434 F       1  UNL1       -0.1659
     15 F          64.0259   91.9693    1.8922 F       1  UNL1       -0.1659
     16 N          54.5478   95.4514   -3.5589 N.3     1  UNL1       -0.2751
     17 C          55.7558   94.8680   -4.2301 C.3     1  UNL1        0.0737
     18 C          56.8190   94.1985   -3.4107 C.3     1  UNL1        0.0369
     19 C          56.6743   94.1124   -1.9203 C.3     1  UNL1        0.0746
     20 C          55.4664   94.6957   -1.2491 C.3     1  UNL1        0.0369
     21 C          54.4031   95.3652   -2.0684 C.3     1  UNL1        0.0737
     22 C          52.7021   96.4052   -3.1304 C.3     1  UNL1        0.0160
     23 C          53.4846   96.1209   -4.3782 C.3     1  UNL1        0.0455
     24 C          54.2670   95.8365   -5.6260 C.3     1  UNL1        0.0160
     25 C          52.4213   96.7903   -5.1975 C.3     1  UNL1        0.0160
@<TRIPOS>BOND
     1    22    23    1
     2    23    24    1
     3    23    25    1
     4    23    16    1
     5    16    17    1
     6    17    18    1
     7    18    19    1
     8    19     1    1
     9     1     2   am
    10     2     3    2
    11     2     5    1
    12     5     6   ar
    13     6     7   ar
    14     7     8   ar
    15     8    12    1
    16    12    13    1
    17    12    14    1
    18    12    15    1
    19     8     9   ar
    20     9    10   ar
    21    10    11    1
    22    19    20    1
    23    20    21    1
    24    21    16    1
    25    10     5   ar
    26     1     4    1
