@<TRIPOS>MOLECULE
*****
 56 62 0 0 0
SMALL
GASTEIGER

@<TRIPOS>ATOM
      1 N          61.4007   85.7025    8.0557 N.3     1  UNL1       -0.1862
      2 C          62.3308   84.6035    8.4762 C.3     1  UNL1        0.1775
      3 C          63.0118   84.6669    9.8112 C.2     1  UNL1        0.2452
      4 O          63.9420   83.5677   10.2316 O.2     1  UNL1       -0.2732
      5 N          62.7626   85.8293   10.7258 N.am    1  UNL1       -0.2541
      6 C          63.4435   85.8927   12.0608 C.3     1  UNL1        0.1577
      7 C          63.1943   87.0552   12.9754 C.2     1  UNL1        0.2445
      8 O          63.8753   87.1186   14.3104 O.2     1  UNL1       -0.2731
      9 N          62.2641   88.1544   12.5550 N.am    1  UNL1       -0.2705
     10 C          61.5832   88.0910   11.2200 C.3     1  UNL1        0.1359
     11 C          61.8324   86.9284   10.3054 C.3     1  UNL1        0.1908
     12 N          61.1515   86.8650    8.9703 N.am    1  UNL1       -0.1863
     13 C          60.2213   87.9642    8.5499 C.2     1  UNL1        0.3191
     14 O          59.9721   89.1266    9.4645 O.2     1  UNL1       -0.2512
     15 N          59.5403   87.9008    7.2149 N.am    1  UNL1       -0.2836
     16 H          59.7039   87.1378    6.6146 H       1  UNL1        0.1513
     17 C          60.7197   85.6391    6.7207 C.3     1  UNL1        0.1188
     18 C          62.1058   84.2522    5.0162 C.2     1  UNL1       -0.0034
     19 C          60.8751   84.4230    5.8566 C.2     1  UNL1       -0.0071
     20 C          64.3737   84.7937   12.4813 C.3     1  UNL1        0.0556
     21 C          63.8212   83.5183   13.0455 C.ar    1  UNL1       -0.0198
     22 C          64.5900   82.2387   12.8997 C.ar    1  UNL1       -0.0011
     23 C          64.0375   80.9633   13.4639 C.ar    1  UNL1        0.0363
     24 C          62.7162   80.9677   14.1739 C.ar    1  UNL1        0.1337
     25 O          62.1638   79.6924   14.7381 O.3     1  UNL1       -0.5055
     26 C          61.9473   82.2474   14.3197 C.ar    1  UNL1        0.0363
     27 C          62.4998   83.5228   13.7555 C.ar    1  UNL1       -0.0011
     28 H          62.6440   78.8930   14.6470 H       1  UNL1        0.2922
     29 C          62.0149   89.3168   13.4696 C.3     1  UNL1        0.1217
     30 C          63.1441   90.2290   13.8479 C.ar    1  UNL1        0.0135
     31 C          63.6727   90.2258   15.2516 C.ar    1  UNL1       -0.0012
     32 C          64.8017   91.1380   15.6300 C.ar    1  UNL1       -0.0002
     33 C          65.4022   92.0533   14.6046 C.ar    1  UNL1        0.0016
     34 C          64.8736   92.0565   13.2008 C.ar    1  UNL1        0.0214
     35 C          65.2620   92.8427   11.9838 C.ar    1  UNL1        0.0721
     36 C          64.3729   92.4165   10.8534 C.ar    1  UNL1        0.0805
     37 N          63.4351   91.3669   11.3717 N.ar    1  UNL1       -0.3241
     38 C          62.3741   90.6633   10.5785 C.3     1  UNL1        0.1305
     39 C          63.7445   91.1444   12.8224 C.ar    1  UNL1        0.0577
     40 C          66.3487   93.8742   11.9103 C.2     1  UNL1        0.2505
     41 O          67.1942   94.1601   13.1158 O.2     1  UNL1       -0.2699
     42 N          66.5898   94.6196   10.6311 N.am    1  UNL1       -0.2759
     43 C          67.6765   95.6510   10.5575 C.3     1  UNL1        0.0962
     44 C          67.9176   96.3964    9.2784 C.3     1  UNL1        0.0508
     45 C          67.0721   96.1105    8.0728 C.3     1  UNL1        0.1139
     46 O          67.3133   96.8560    6.7937 O.3     1  UNL1       -0.3843
     47 C          65.9854   95.0791    8.1465 C.3     1  UNL1        0.0508
     48 C          65.7443   94.3336    9.4256 C.3     1  UNL1        0.0962
     49 H          68.0454   97.4803    6.9165 H       1  UNL1        0.2103
     50 C          58.6102   88.9998    6.7944 C.3     1  UNL1        0.1177
     51 C          59.0961   90.0847    5.8796 C.ar    1  UNL1       -0.0025
     52 C          58.1170   91.0355    5.2573 C.ar    1  UNL1       -0.0026
     53 C          58.6030   92.1204    4.3425 C.ar    1  UNL1       -0.0003
     54 C          60.0680   92.2544    4.0499 C.ar    1  UNL1       -0.0000
     55 C          61.0472   91.3036    4.6721 C.ar    1  UNL1       -0.0003
     56 C          60.5613   90.2187    5.5870 C.ar    1  UNL1       -0.0026
@<TRIPOS>BOND
     1    18    19    2
     2    19    17    1
     3    17     1    1
     4     1     2    1
     5     2     3    1
     6     3     4    2
     7     3     5   am
     8     5     6    1
     9     6    20    1
    10    20    21    1
    11    21    22   ar
    12    22    23   ar
    13    23    24   ar
    14    24    25    1
    15    24    26   ar
    16    26    27   ar
    17     6     7    1
    18     7     8    2
    19     7     9   am
    20     9    29    1
    21    29    30    1
    22    30    31   ar
    23    31    32   ar
    24    32    33   ar
    25    33    34   ar
    26    34    35   ar
    27    35    40    1
    28    40    41    2
    29    40    42   am
    30    42    43    1
    31    43    44    1
    32    44    45    1
    33    45    46    1
    34    45    47    1
    35    47    48    1
    36    35    36   ar
    37    36    37   ar
    38    37    38    1
    39    37    39   ar
    40     9    10    1
    41    11    10    1
    42    11    12    1
    43    12    13   am
    44    13    14    2
    45    13    15   am
    46    15    50    1
    47    50    51    1
    48    51    52   ar
    49    52    53   ar
    50    53    54   ar
    51    54    55   ar
    52    55    56   ar
    53    12     1    1
    54    56    51   ar
    55    11     5    1
    56    27    21   ar
    57    39    30   ar
    58    39    34   ar
    59    48    42    1
    60    25    28    1
    61    46    49    1
    62    15    16    1
@<TRIPOS>MOLECULE
*****
 56 62 0 0 0
SMALL
GASTEIGER

@<TRIPOS>ATOM
      1 N          62.7634   92.4592    2.6759 N.3     1  UNL1       -0.1862
      2 C          63.9056   92.9403    1.8310 C.3     1  UNL1        0.1775
      3 C          63.6531   93.8945    0.7016 C.2     1  UNL1        0.2452
      4 O          64.7955   94.3756   -0.1434 O.2     1  UNL1       -0.2732
      5 N          62.2585   94.3677    0.4170 N.am    1  UNL1       -0.2541
      6 C          62.0061   95.3219   -0.7125 C.3     1  UNL1        0.1577
      7 C          60.6114   95.7951   -0.9971 C.2     1  UNL1        0.2445
      8 O          60.3590   96.7493   -2.1265 O.2     1  UNL1       -0.2731
      9 N          59.4691   95.3140   -0.1522 N.am    1  UNL1       -0.2705
     10 C          59.7216   94.3598    0.9773 C.3     1  UNL1        0.1359
     11 C          61.1163   93.8866    1.2619 C.3     1  UNL1        0.1908
     12 N          61.3687   92.9324    2.3913 N.am    1  UNL1       -0.1863
     13 C          60.2264   92.4513    3.2362 C.2     1  UNL1        0.3191
     14 O          58.8318   92.9245    2.9516 O.2     1  UNL1       -0.2512
     15 N          60.4788   91.4970    4.3657 N.am    1  UNL1       -0.2836
     16 H          61.3942   91.1865    4.5525 H       1  UNL1        0.1513
     17 C          63.0158   91.5049    3.8054 C.3     1  UNL1        0.1188
     18 C          64.8677   89.8385    3.0682 C.2     1  UNL1       -0.0034
     19 C          63.4607   90.1019    3.5166 C.2     1  UNL1       -0.0071
     20 C          63.1483   95.8030   -1.5574 C.3     1  UNL1        0.0556
     21 C          63.3420   95.2539   -2.9398 C.ar    1  UNL1       -0.0198
     22 C          63.3041   93.7722   -3.1703 C.ar    1  UNL1       -0.0011
     23 C          63.4977   93.2231   -4.5527 C.ar    1  UNL1        0.0363
     24 C          63.7293   94.1557   -5.7045 C.ar    1  UNL1        0.1337
     25 O          63.9229   93.6066   -7.0869 O.3     1  UNL1       -0.5055
     26 C          63.7672   95.6374   -5.4740 C.ar    1  UNL1        0.0363
     27 C          63.5735   96.1865   -4.0916 C.ar    1  UNL1       -0.0011
     28 H          63.8993   92.6810   -7.2309 H       1  UNL1        0.2922
     29 C          58.0745   95.7872   -0.4368 C.3     1  UNL1        0.1217
     30 C          57.5039   95.6525   -1.8175 C.ar    1  UNL1        0.0135
     31 C          56.9493   96.8560   -2.5204 C.ar    1  UNL1       -0.0012
     32 C          56.3787   96.7214   -3.9011 C.ar    1  UNL1       -0.0002
     33 C          56.3627   95.3834   -4.5788 C.ar    1  UNL1        0.0016
     34 C          56.9173   94.1799   -3.8759 C.ar    1  UNL1        0.0214
     35 C          57.0367   92.7428   -4.2887 C.ar    1  UNL1        0.0721
     36 C          57.6811   91.9892   -3.1631 C.ar    1  UNL1        0.0805
     37 N          57.9599   92.9606   -2.0547 N.ar    1  UNL1       -0.3241
     38 C          58.5987   92.6352   -0.7371 C.3     1  UNL1        0.1305
     39 C          57.4879   94.3145   -2.4952 C.ar    1  UNL1        0.0577
     40 C          56.5901   92.1613   -5.5973 C.2     1  UNL1        0.2505
     41 O          57.1368   92.7036   -6.8846 O.2     1  UNL1       -0.2699
     42 N          55.5967   91.0376   -5.6187 N.am    1  UNL1       -0.2759
     43 C          55.1501   90.4561   -6.9273 C.3     1  UNL1        0.0962
     44 C          54.1568   89.3324   -6.9487 C.3     1  UNL1        0.0508
     45 C          53.6100   88.7901   -5.6614 C.3     1  UNL1        0.1139
     46 O          52.6166   87.6663   -5.6828 O.3     1  UNL1       -0.3843
     47 C          54.0567   89.3716   -4.3528 C.3     1  UNL1        0.0508
     48 C          55.0500   90.4953   -4.3314 C.3     1  UNL1        0.0962
     49 H          52.4378   87.4103   -6.6012 H       1  UNL1        0.2103
     50 C          59.3366   91.0160    5.2106 C.3     1  UNL1        0.1177
     51 C          59.5865   90.0476    6.3285 C.ar    1  UNL1       -0.0025
     52 C          60.2796   90.5062    7.5772 C.ar    1  UNL1       -0.0026
     53 C          60.5294   89.5379    8.6952 C.ar    1  UNL1       -0.0003
     54 C          60.0862   88.1108    8.5644 C.ar    1  UNL1       -0.0000
     55 C          59.3931   87.6521    7.3157 C.ar    1  UNL1       -0.0003
     56 C          59.1432   88.6205    6.1978 C.ar    1  UNL1       -0.0026
@<TRIPOS>BOND
     1    18    19    2
     2    19    17    1
     3    17     1    1
     4     1     2    1
     5     2     3    1
     6     3     4    2
     7     3     5   am
     8     5     6    1
     9     6    20    1
    10    20    21    1
    11    21    22   ar
    12    22    23   ar
    13    23    24   ar
    14    24    25    1
    15    24    26   ar
    16    26    27   ar
    17     6     7    1
    18     7     8    2
    19     7     9   am
    20     9    29    1
    21    29    30    1
    22    30    31   ar
    23    31    32   ar
    24    32    33   ar
    25    33    34   ar
    26    34    35   ar
    27    35    40    1
    28    40    41    2
    29    40    42   am
    30    42    43    1
    31    43    44    1
    32    44    45    1
    33    45    46    1
    34    45    47    1
    35    47    48    1
    36    35    36   ar
    37    36    37   ar
    38    37    38    1
    39    37    39   ar
    40     9    10    1
    41    11    10    1
    42    11    12    1
    43    12    13   am
    44    13    14    2
    45    13    15   am
    46    15    50    1
    47    50    51    1
    48    51    52   ar
    49    52    53   ar
    50    53    54   ar
    51    54    55   ar
    52    55    56   ar
    53    12     1    1
    54    56    51   ar
    55    11     5    1
    56    27    21   ar
    57    39    30   ar
    58    39    34   ar
    59    48    42    1
    60    25    28    1
    61    46    49    1
    62    15    16    1
@<TRIPOS>MOLECULE
*****
 56 62 0 0 0
SMALL
GASTEIGER

@<TRIPOS>ATOM
      1 N          63.0470   83.8264    9.6617 N.3     1  UNL1       -0.1862
      2 C          62.4342   83.8652    8.2932 C.3     1  UNL1        0.1775
      3 C          61.6743   85.0787    7.8458 C.2     1  UNL1        0.2452
      4 O          61.0615   85.1175    6.4772 O.2     1  UNL1       -0.2732
      5 N          61.5272   86.2533    8.7670 N.am    1  UNL1       -0.2541
      6 C          60.7674   87.4667    8.3196 C.3     1  UNL1        0.1577
      7 C          60.6203   88.6414    9.2408 C.2     1  UNL1        0.2445
      8 O          59.8604   89.8548    8.7934 O.2     1  UNL1       -0.2731
      9 N          61.2331   88.6026   10.6094 N.am    1  UNL1       -0.2705
     10 C          61.9930   87.3891   11.0568 C.3     1  UNL1        0.1359
     11 C          62.1400   86.2145   10.1355 C.3     1  UNL1        0.1908
     12 N          62.8999   85.0010   10.5829 N.am    1  UNL1       -0.1863
     13 C          63.5127   84.9622   11.9515 C.2     1  UNL1        0.3191
     14 O          63.3657   86.1369   12.8727 O.2     1  UNL1       -0.2512
     15 N          64.2726   83.7488   12.3989 N.am    1  UNL1       -0.2836
     16 H          64.3691   82.9778   11.7943 H       1  UNL1        0.1513
     17 C          63.8069   82.6130   10.1091 C.3     1  UNL1        0.1188
     18 C          62.7323   81.0020   11.8412 C.2     1  UNL1       -0.0034
     19 C          63.0740   81.3418   10.4207 C.2     1  UNL1       -0.0071
     20 C          60.1546   87.5056    6.9511 C.3     1  UNL1        0.0556
     21 C          59.6791   88.8081    6.3789 C.ar    1  UNL1       -0.0198
     22 C          60.6535   89.7370    5.7176 C.ar    1  UNL1       -0.0011
     23 C          60.1780   91.0395    5.1454 C.ar    1  UNL1        0.0363
     24 C          58.7281   91.4131    5.2346 C.ar    1  UNL1        0.1337
     25 O          58.2526   92.7156    4.6624 O.3     1  UNL1       -0.5055
     26 C          57.7535   90.4841    5.8959 C.ar    1  UNL1        0.0363
     27 C          58.2290   89.1816    6.4681 C.ar    1  UNL1       -0.0011
     28 H          58.8613   93.2959    4.2493 H       1  UNL1        0.2922
     29 C          61.0860   89.7772   11.5306 C.3     1  UNL1        0.1217
     30 C          62.2887   90.5914   11.9056 C.ar    1  UNL1        0.0135
     31 C          63.0324   91.3593   10.8534 C.ar    1  UNL1       -0.0012
     32 C          64.2351   92.1735   11.2284 C.ar    1  UNL1       -0.0002
     33 C          64.6940   92.2199   12.6556 C.ar    1  UNL1        0.0016
     34 C          63.9504   91.4520   13.7079 C.ar    1  UNL1        0.0214
     35 C          64.1657   91.3073   15.1853 C.ar    1  UNL1        0.0721
     36 C          63.0961   90.4038   15.7233 C.ar    1  UNL1        0.0805
     37 N          62.2198   89.9900   14.5785 N.ar    1  UNL1       -0.3241
     38 C          61.0252   89.0869   14.6642 C.3     1  UNL1        0.1305
     39 C          62.7477   90.6378   13.3329 C.ar    1  UNL1        0.0577
     40 C          65.2588   91.9530   15.9844 C.2     1  UNL1        0.2505
     41 O          64.9685   92.4923   17.3537 O.2     1  UNL1       -0.2699
     42 N          66.6420   92.0594   15.4141 N.am    1  UNL1       -0.2759
     43 C          67.7351   92.7050   16.2131 C.3     1  UNL1        0.0962
     44 C          69.1184   92.8114   15.6429 C.3     1  UNL1        0.0508
     45 C          69.4087   92.2721   14.2736 C.3     1  UNL1        0.1139
     46 O          70.7919   92.3785   13.7033 O.3     1  UNL1       -0.3843
     47 C          68.3155   91.6265   13.4746 C.3     1  UNL1        0.0508
     48 C          66.9322   91.5201   14.0448 C.3     1  UNL1        0.0962
     49 H          71.3727   92.8185   14.3436 H       1  UNL1        0.2103
     50 C          64.8854   83.7100   13.7674 C.3     1  UNL1        0.1177
     51 C          64.2598   84.4814   14.8915 C.ar    1  UNL1       -0.0025
     52 C          64.8429   85.7973   15.3137 C.ar    1  UNL1       -0.0026
     53 C          64.2174   86.5688   16.4378 C.ar    1  UNL1       -0.0003
     54 C          63.0087   86.0244   17.1396 C.ar    1  UNL1       -0.0000
     55 C          62.4255   84.7084   16.7174 C.ar    1  UNL1       -0.0003
     56 C          63.0511   83.9369   15.5933 C.ar    1  UNL1       -0.0026
@<TRIPOS>BOND
     1    18    19    2
     2    19    17    1
     3    17     1    1
     4     1     2    1
     5     2     3    1
     6     3     4    2
     7     3     5   am
     8     5     6    1
     9     6    20    1
    10    20    21    1
    11    21    22   ar
    12    22    23   ar
    13    23    24   ar
    14    24    25    1
    15    24    26   ar
    16    26    27   ar
    17     6     7    1
    18     7     8    2
    19     7     9   am
    20     9    29    1
    21    29    30    1
    22    30    31   ar
    23    31    32   ar
    24    32    33   ar
    25    33    34   ar
    26    34    35   ar
    27    35    40    1
    28    40    41    2
    29    40    42   am
    30    42    43    1
    31    43    44    1
    32    44    45    1
    33    45    46    1
    34    45    47    1
    35    47    48    1
    36    35    36   ar
    37    36    37   ar
    38    37    38    1
    39    37    39   ar
    40     9    10    1
    41    11    10    1
    42    11    12    1
    43    12    13   am
    44    13    14    2
    45    13    15   am
    46    15    50    1
    47    50    51    1
    48    51    52   ar
    49    52    53   ar
    50    53    54   ar
    51    54    55   ar
    52    55    56   ar
    53    12     1    1
    54    56    51   ar
    55    11     5    1
    56    27    21   ar
    57    39    30   ar
    58    39    34   ar
    59    48    42    1
    60    25    28    1
    61    46    49    1
    62    15    16    1
@<TRIPOS>MOLECULE
*****
 56 62 0 0 0
SMALL
GASTEIGER

@<TRIPOS>ATOM
      1 N          65.3526   89.3757   14.6421 N.3     1  UNL1       -0.1862
      2 C          65.5434   88.1313   15.4576 C.3     1  UNL1        0.1775
      3 C          64.8160   86.8729   15.0871 C.2     1  UNL1        0.2452
      4 O          65.0069   85.6284   15.9026 O.2     1  UNL1       -0.2732
      5 N          63.8977   86.8589   13.9012 N.am    1  UNL1       -0.2541
      6 C          63.1703   85.6005   13.5307 C.3     1  UNL1        0.1577
      7 C          62.2520   85.5865   12.3447 C.2     1  UNL1        0.2445
      8 O          61.5245   84.3281   11.9742 O.2     1  UNL1       -0.2731
      9 N          62.0611   86.8309   11.5292 N.am    1  UNL1       -0.2705
     10 C          62.7886   88.0893   11.8997 C.3     1  UNL1        0.1359
     11 C          63.7069   88.1033   13.0857 C.3     1  UNL1        0.1908
     12 N          64.4343   89.3617   13.4562 N.am    1  UNL1       -0.1863
     13 C          64.2435   90.6061   12.6407 C.2     1  UNL1        0.3191
     14 O          63.3252   90.5921   11.4547 O.2     1  UNL1       -0.2512
     15 N          64.9709   91.8645   13.0111 N.am    1  UNL1       -0.2836
     16 H          65.5736   91.8737   13.7895 H       1  UNL1        0.1513
     17 C          66.0800   90.6341   15.0126 C.3     1  UNL1        0.1188
     18 C          68.0771   92.2296   14.5478 C.2     1  UNL1       -0.0034
     19 C          67.4905   90.8490   14.5497 C.2     1  UNL1       -0.0071
     20 C          63.3611   84.3561   14.3461 C.3     1  UNL1        0.0556
     21 C          63.1569   83.0092   13.7182 C.ar    1  UNL1       -0.0198
     22 C          63.9825   82.6007   12.5344 C.ar    1  UNL1       -0.0011
     23 C          63.7783   81.2539   11.9065 C.ar    1  UNL1        0.0363
     24 C          62.7485   80.3155   12.4623 C.ar    1  UNL1        0.1337
     25 O          62.5444   78.9687   11.8344 O.3     1  UNL1       -0.5055
     26 C          61.9229   80.7240   13.6462 C.ar    1  UNL1        0.0363
     27 C          62.1271   82.0709   14.2741 C.ar    1  UNL1       -0.0011
     28 H          63.0601   78.7135   11.0949 H       1  UNL1        0.2922
     29 C          61.1428   86.8169   10.3432 C.3     1  UNL1        0.1217
     30 C          60.5383   88.0972    9.8476 C.ar    1  UNL1        0.0135
     31 C          60.3309   89.2437   10.7922 C.ar    1  UNL1       -0.0012
     32 C          59.7264   90.5239   10.2967 C.ar    1  UNL1       -0.0002
     33 C          59.3293   90.6575    8.8564 C.ar    1  UNL1        0.0016
     34 C          59.5367   89.5110    7.9117 C.ar    1  UNL1        0.0214
     35 C          59.2458   89.3504    6.4490 C.ar    1  UNL1        0.0721
     36 C          59.6704   87.9710    6.0406 C.ar    1  UNL1        0.0805
     37 N          60.2238   87.2791    7.2509 N.ar    1  UNL1       -0.3241
     38 C          60.7649   85.8808    7.2967 C.3     1  UNL1        0.1305
     39 C          60.1412   88.2308    8.4073 C.ar    1  UNL1        0.0577
     40 C          58.6370   90.3873    5.5521 C.2     1  UNL1        0.2505
     41 O          57.1577   90.6337    5.5867 O.2     1  UNL1       -0.2699
     42 N          59.5074   91.1777    4.6207 N.am    1  UNL1       -0.2759
     43 C          58.8987   92.2146    3.7238 C.3     1  UNL1        0.0962
     44 C          59.7691   93.0050    2.7924 C.3     1  UNL1        0.0508
     45 C          61.2484   92.7586    2.7578 C.3     1  UNL1        0.1139
     46 O          62.1188   93.5490    1.8264 O.3     1  UNL1       -0.3843
     47 C          61.8571   91.7217    3.6548 C.3     1  UNL1        0.0508
     48 C          60.9866   90.9313    4.5862 C.3     1  UNL1        0.0962
     49 H          61.5715   94.1711    1.3221 H       1  UNL1        0.2103
     50 C          64.7801   93.1089   12.1957 C.3     1  UNL1        0.1177
     51 C          65.8239   93.5208   11.2003 C.ar    1  UNL1       -0.0025
     52 C          65.9027   94.9471   10.7429 C.ar    1  UNL1       -0.0026
     53 C          66.9466   95.3590    9.7476 C.ar    1  UNL1       -0.0003
     54 C          67.9117   94.3445    9.2097 C.ar    1  UNL1       -0.0000
     55 C          67.8330   92.9181    9.6671 C.ar    1  UNL1       -0.0003
     56 C          66.7891   92.5062   10.6624 C.ar    1  UNL1       -0.0026
@<TRIPOS>BOND
     1    18    19    2
     2    19    17    1
     3    17     1    1
     4     1     2    1
     5     2     3    1
     6     3     4    2
     7     3     5   am
     8     5     6    1
     9     6    20    1
    10    20    21    1
    11    21    22   ar
    12    22    23   ar
    13    23    24   ar
    14    24    25    1
    15    24    26   ar
    16    26    27   ar
    17     6     7    1
    18     7     8    2
    19     7     9   am
    20     9    29    1
    21    29    30    1
    22    30    31   ar
    23    31    32   ar
    24    32    33   ar
    25    33    34   ar
    26    34    35   ar
    27    35    40    1
    28    40    41    2
    29    40    42   am
    30    42    43    1
    31    43    44    1
    32    44    45    1
    33    45    46    1
    34    45    47    1
    35    47    48    1
    36    35    36   ar
    37    36    37   ar
    38    37    38    1
    39    37    39   ar
    40     9    10    1
    41    11    10    1
    42    11    12    1
    43    12    13   am
    44    13    14    2
    45    13    15   am
    46    15    50    1
    47    50    51    1
    48    51    52   ar
    49    52    53   ar
    50    53    54   ar
    51    54    55   ar
    52    55    56   ar
    53    12     1    1
    54    56    51   ar
    55    11     5    1
    56    27    21   ar
    57    39    30   ar
    58    39    34   ar
    59    48    42    1
    60    25    28    1
    61    46    49    1
    62    15    16    1
@<TRIPOS>MOLECULE
*****
 56 62 0 0 0
SMALL
GASTEIGER

@<TRIPOS>ATOM
      1 N          61.4402   85.6769    7.9721 N.3     1  UNL1       -0.1862
      2 C          62.4274   84.6374    8.4134 C.3     1  UNL1        0.1775
      3 C          63.0562   84.7293    9.7722 C.2     1  UNL1        0.2452
      4 O          64.0435   83.6898   10.2135 O.2     1  UNL1       -0.2732
      5 N          62.6977   85.8606   10.6896 N.am    1  UNL1       -0.2541
      6 C          63.3265   85.9524   12.0483 C.3     1  UNL1        0.1577
      7 C          62.9680   87.0837   12.9657 C.2     1  UNL1        0.2445
      8 O          63.5968   87.1756   14.3244 O.2     1  UNL1       -0.2731
      9 N          61.9807   88.1232   12.5243 N.am    1  UNL1       -0.2705
     10 C          61.3519   88.0314   11.1656 C.3     1  UNL1        0.1359
     11 C          61.7105   86.9000   10.2482 C.3     1  UNL1        0.1908
     12 N          61.0817   86.8082    8.8894 N.am    1  UNL1       -0.1863
     13 C          60.0944   87.8477    8.4481 C.2     1  UNL1        0.3191
     14 O          59.7359   88.9790    9.3655 O.2     1  UNL1       -0.2512
     15 N          59.4656   87.7558    7.0893 N.am    1  UNL1       -0.2836
     16 H          59.7009   87.0133    6.4872 H       1  UNL1        0.1513
     17 C          60.8114   85.5850    6.6133 C.3     1  UNL1        0.1188
     18 C          62.2714   84.2621    4.9197 C.2     1  UNL1       -0.0034
     19 C          61.0359   84.3695    5.7636 C.2     1  UNL1       -0.0071
     20 C          64.3138   84.9130   12.4897 C.3     1  UNL1        0.0556
     21 C          63.8300   83.5894   13.0034 C.ar    1  UNL1       -0.0198
     22 C          62.4893   83.4875   13.6683 C.ar    1  UNL1       -0.0011
     23 C          62.0055   82.1638   14.1821 C.ar    1  UNL1        0.0363
     24 C          62.8625   80.9421   14.0309 C.ar    1  UNL1        0.1337
     25 O          62.3787   79.6184   14.5447 O.3     1  UNL1       -0.5055
     26 C          64.2032   81.0439   13.3660 C.ar    1  UNL1        0.0363
     27 C          64.6870   82.3675   12.8523 C.ar    1  UNL1       -0.0011
     28 H          61.5412   79.5548   14.9600 H       1  UNL1        0.2922
     29 C          61.6222   89.2545   13.4417 C.3     1  UNL1        0.1217
     30 C          62.7027   90.0185   14.1482 C.ar    1  UNL1        0.0135
     31 C          62.8837   89.8655   15.6293 C.ar    1  UNL1       -0.0012
     32 C          63.9641   90.6294   16.3358 C.ar    1  UNL1       -0.0002
     33 C          64.8635   91.5463   15.5611 C.ar    1  UNL1        0.0016
     34 C          64.6826   91.6993   14.0799 C.ar    1  UNL1        0.0214
     35 C          65.4110   92.5229   13.0595 C.ar    1  UNL1        0.0721
     36 C          64.7807   92.2679   11.7225 C.ar    1  UNL1        0.0805
     37 N          63.6629   91.2869   11.9165 N.ar    1  UNL1       -0.3241
     38 C          62.7635   90.7512   10.8421 C.3     1  UNL1        0.1305
     39 C          63.6022   90.9354   13.3734 C.ar    1  UNL1        0.0577
     40 C          66.5668   93.4403   13.3289 C.2     1  UNL1        0.2505
     41 O          66.7183   94.7073   12.5403 O.2     1  UNL1       -0.2699
     42 N          67.5710   93.0908   14.3870 N.am    1  UNL1       -0.2759
     43 C          68.7267   94.0082   14.6564 C.3     1  UNL1        0.0962
     44 C          69.7309   93.6587   15.7144 C.3     1  UNL1        0.0508
     45 C          69.5794   92.3917   16.5030 C.3     1  UNL1        0.1139
     46 O          70.5836   92.0422   17.5610 O.3     1  UNL1       -0.3843
     47 C          68.4236   91.4743   16.2335 C.3     1  UNL1        0.0508
     48 C          67.4194   91.8238   15.1755 C.3     1  UNL1        0.0962
     49 H          71.2602   92.7358   17.6064 H       1  UNL1        0.2103
     50 C          58.4783   88.7952    6.6480 C.3     1  UNL1        0.1177
     51 C          58.9385   89.9703    5.8371 C.ar    1  UNL1       -0.0025
     52 C          60.3986   90.1569    5.5487 C.ar    1  UNL1       -0.0026
     53 C          60.8587   91.3320    4.7379 C.ar    1  UNL1       -0.0003
     54 C          59.8588   92.3204    4.2154 C.ar    1  UNL1       -0.0000
     55 C          58.3986   92.1339    4.5038 C.ar    1  UNL1       -0.0003
     56 C          57.9384   90.9588    5.3147 C.ar    1  UNL1       -0.0026
@<TRIPOS>BOND
     1    18    19    2
     2    19    17    1
     3    17     1    1
     4     1     2    1
     5     2     3    1
     6     3     4    2
     7     3     5   am
     8     5     6    1
     9     6    20    1
    10    20    21    1
    11    21    22   ar
    12    22    23   ar
    13    23    24   ar
    14    24    25    1
    15    24    26   ar
    16    26    27   ar
    17     6     7    1
    18     7     8    2
    19     7     9   am
    20     9    29    1
    21    29    30    1
    22    30    31   ar
    23    31    32   ar
    24    32    33   ar
    25    33    34   ar
    26    34    35   ar
    27    35    40    1
    28    40    41    2
    29    40    42   am
    30    42    43    1
    31    43    44    1
    32    44    45    1
    33    45    46    1
    34    45    47    1
    35    47    48    1
    36    35    36   ar
    37    36    37   ar
    38    37    38    1
    39    37    39   ar
    40     9    10    1
    41    11    10    1
    42    11    12    1
    43    12    13   am
    44    13    14    2
    45    13    15   am
    46    15    50    1
    47    50    51    1
    48    51    52   ar
    49    52    53   ar
    50    53    54   ar
    51    54    55   ar
    52    55    56   ar
    53    12     1    1
    54    56    51   ar
    55    11     5    1
    56    27    21   ar
    57    39    30   ar
    58    39    34   ar
    59    48    42    1
    60    25    28    1
    61    46    49    1
    62    15    16    1
@<TRIPOS>MOLECULE
*****
 56 62 0 0 0
SMALL
GASTEIGER

@<TRIPOS>ATOM
      1 N          62.9608   83.9847    9.6002 N.3     1  UNL1       -0.1862
      2 C          62.2997   84.0376    8.2548 C.3     1  UNL1        0.1775
      3 C          61.4735   85.2294    7.8715 C.2     1  UNL1        0.2452
      4 O          60.8124   85.2822    6.5260 O.2     1  UNL1       -0.2732
      5 N          61.3083   86.3683    8.8335 N.am    1  UNL1       -0.2541
      6 C          60.4821   87.5601    8.4502 C.3     1  UNL1        0.1577
      7 C          60.3169   88.6990    9.4122 C.2     1  UNL1        0.2445
      8 O          59.4907   89.8908    9.0289 O.2     1  UNL1       -0.2731
      9 N          60.9780   88.6461   10.7577 N.am    1  UNL1       -0.2705
     10 C          61.8043   87.4543   11.1410 C.3     1  UNL1        0.1359
     11 C          61.9694   86.3154   10.1789 C.3     1  UNL1        0.1908
     12 N          62.7956   85.1236   10.5623 N.am    1  UNL1       -0.1863
     13 C          63.4567   85.0707   11.9078 C.2     1  UNL1        0.3191
     14 O          63.2915   86.2096   12.8698 O.2     1  UNL1       -0.2512
     15 N          64.2829   83.8789   12.2911 N.am    1  UNL1       -0.2836
     16 H          64.3913   83.1314   11.6597 H       1  UNL1        0.1513
     17 C          63.7870   82.7929    9.9836 C.3     1  UNL1        0.1188
     18 C          62.7525   81.1439   11.7042 C.2     1  UNL1       -0.0034
     19 C          63.1197   81.4850   10.2904 C.2     1  UNL1       -0.0071
     20 C          59.8210   87.6130    7.1048 C.3     1  UNL1        0.0556
     21 C          59.5557   88.9367    6.4510 C.ar    1  UNL1       -0.0198
     22 C          58.1523   89.4571    6.3534 C.ar    1  UNL1       -0.0011
     23 C          57.8870   90.7808    5.6996 C.ar    1  UNL1        0.0363
     24 C          59.0251   91.5841    5.1435 C.ar    1  UNL1        0.1337
     25 O          58.7597   92.9078    4.4897 O.3     1  UNL1       -0.5055
     26 C          60.4286   91.0637    5.2410 C.ar    1  UNL1        0.0363
     27 C          60.6939   89.7400    5.8948 C.ar    1  UNL1       -0.0011
     28 H          57.8830   93.2329    4.4287 H       1  UNL1        0.2922
     29 C          60.8129   89.7850   11.7197 C.3     1  UNL1        0.1217
     30 C          61.9856   90.2645   12.5229 C.ar    1  UNL1        0.0135
     31 C          62.0627   89.9641   13.9904 C.ar    1  UNL1       -0.0012
     32 C          63.2353   90.4435   14.7936 C.ar    1  UNL1       -0.0002
     33 C          64.3308   91.2234   14.1291 C.ar    1  UNL1        0.0016
     34 C          64.2537   91.5238   12.6615 C.ar    1  UNL1        0.0214
     35 C          65.1753   92.2652   11.7390 C.ar    1  UNL1        0.0721
     36 C          64.5722   92.2439   10.3658 C.ar    1  UNL1        0.0805
     37 N          63.2780   91.4894   10.4396 N.ar    1  UNL1       -0.3241
     38 C          62.3444   91.2262    9.2954 C.3     1  UNL1        0.1305
     39 C          63.0811   91.0444   11.8584 C.ar    1  UNL1        0.0577
     40 C          66.4724   92.9139   12.1225 C.2     1  UNL1        0.2505
     41 O          67.1186   93.9026   11.1979 O.2     1  UNL1       -0.2699
     42 N          67.1231   92.5740   13.4305 N.am    1  UNL1       -0.2759
     43 C          68.4200   93.2226   13.8140 C.3     1  UNL1        0.0962
     44 C          69.0708   92.8827   15.1220 C.3     1  UNL1        0.0508
     45 C          68.4245   91.8940   16.0467 C.3     1  UNL1        0.1139
     46 O          69.0753   91.5540   17.3547 O.3     1  UNL1       -0.3843
     47 C          67.1275   91.2453   15.6631 C.3     1  UNL1        0.0508
     48 C          66.4768   91.5852   14.3551 C.3     1  UNL1        0.0962
     49 H          69.8995   92.0571   17.4462 H       1  UNL1        0.2103
     50 C          64.9440   83.8260   13.6365 C.3     1  UNL1        0.1177
     51 C          64.3170   84.5218   14.8081 C.ar    1  UNL1       -0.0025
     52 C          63.1812   83.8753   15.5443 C.ar    1  UNL1       -0.0026
     53 C          62.5541   84.5711   16.7160 C.ar    1  UNL1       -0.0003
     54 C          63.0629   85.9133   17.1514 C.ar    1  UNL1       -0.0000
     55 C          64.1987   86.5598   16.4152 C.ar    1  UNL1       -0.0003
     56 C          64.8258   85.8640   15.2436 C.ar    1  UNL1       -0.0026
@<TRIPOS>BOND
     1    18    19    2
     2    19    17    1
     3    17     1    1
     4     1     2    1
     5     2     3    1
     6     3     4    2
     7     3     5   am
     8     5     6    1
     9     6    20    1
    10    20    21    1
    11    21    22   ar
    12    22    23   ar
    13    23    24   ar
    14    24    25    1
    15    24    26   ar
    16    26    27   ar
    17     6     7    1
    18     7     8    2
    19     7     9   am
    20     9    29    1
    21    29    30    1
    22    30    31   ar
    23    31    32   ar
    24    32    33   ar
    25    33    34   ar
    26    34    35   ar
    27    35    40    1
    28    40    41    2
    29    40    42   am
    30    42    43    1
    31    43    44    1
    32    44    45    1
    33    45    46    1
    34    45    47    1
    35    47    48    1
    36    35    36   ar
    37    36    37   ar
    38    37    38    1
    39    37    39   ar
    40     9    10    1
    41    11    10    1
    42    11    12    1
    43    12    13   am
    44    13    14    2
    45    13    15   am
    46    15    50    1
    47    50    51    1
    48    51    52   ar
    49    52    53   ar
    50    53    54   ar
    51    54    55   ar
    52    55    56   ar
    53    12     1    1
    54    56    51   ar
    55    11     5    1
    56    27    21   ar
    57    39    30   ar
    58    39    34   ar
    59    48    42    1
    60    25    28    1
    61    46    49    1
    62    15    16    1
