@<TRIPOS>MOLECULE
*****
 37 40 0 0 0
SMALL
GASTEIGER

@<TRIPOS>ATOM
      1 N          62.2112   88.6911   10.8712 N.pl3   1  UNL1       -0.2926
      2 C          62.3415   87.2391   11.2242 C.3     1  UNL1        0.0922
      3 C          61.5605   86.2092   10.4630 C.3     1  UNL1        0.0220
      4 C          60.6492   86.6314    9.3488 C.3     1  UNL1        0.0126
      5 C          60.5190   88.0835    8.9959 C.3     1  UNL1        0.0963
      6 C          61.3000   89.1133    9.7570 C.3     1  UNL1        0.1012
      7 C          64.5808   91.7767   11.6549 C.ar    1  UNL1        0.1362
      8 C          63.7998   90.7469   10.8938 C.ar    1  UNL1        0.0686
      9 C          62.9923   89.7210   11.6324 C.ar    1  UNL1        0.1361
     10 N          62.9657   89.7251   13.1321 N.ar    1  UNL1       -0.2083
     11 C          63.7467   90.7550   13.8932 C.ar    1  UNL1        0.2374
     12 N          64.5543   91.7808   13.1546 N.ar    1  UNL1       -0.2083
     13 C          67.8110   95.8800    8.7005 C.3     1  UNL1        0.0897
     14 N          67.0035   94.8542    9.4391 N.3     1  UNL1       -0.2686
     15 C          65.7666   95.2656   10.1812 C.3     1  UNL1        0.0939
     16 C          64.9591   94.2398   10.9198 C.3     1  UNL1        0.1095
     17 N          65.3884   92.8025   10.9163 N.pl3   1  UNL1       -0.2903
     18 C          66.6253   92.3912   10.1742 C.3     1  UNL1        0.1095
     19 C          67.4328   93.4170    9.4355 C.3     1  UNL1        0.0939
     20 C          63.7202   90.7591   15.3931 C.3     1  UNL1        0.4524
     21 F          63.6937   90.7632   16.8928 F       1  UNL1       -0.1632
     22 F          64.8235   91.7751   15.4097 F       1  UNL1       -0.1632
     23 F          62.6169   89.7430   15.3764 F       1  UNL1       -0.1632
     24 C          59.6077   88.5057    7.8817 C.2     1  UNL1        0.2237
     25 O          58.3346   87.7541    7.6285 O.2     1  UNL1       -0.2751
     26 N          59.9697   89.6795    7.0207 N.am    1  UNL1       -0.3040
     27 H          60.8053   90.1728    7.1869 H       1  UNL1        0.1494
     28 C          59.0584   90.1017    5.9066 C.3     1  UNL1        0.0941
     29 C          59.1135   91.5067    5.3842 C.3     1  UNL1        0.0492
     30 C          60.1428   91.8867    4.3613 C.ar    1  UNL1       -0.0013
     31 C          61.4846   91.2164    4.3627 C.ar    1  UNL1       -0.0004
     32 C          62.5139   91.5964    3.3399 C.ar    1  UNL1        0.0293
     33 C          62.2014   92.6468    2.3157 C.ar    1  UNL1        0.1491
     34 N          60.8595   93.3171    2.3143 N.ar    1  UNL1       -0.2339
     35 C          59.8302   92.9371    3.3372 C.ar    1  UNL1        0.0954
     36 C          63.2306   93.0268    1.2929 C.1     1  UNL1        0.1198
     37 N          64.2599   93.4068    0.2700 N.1     1  UNL1       -0.1893
@<TRIPOS>BOND
     1    13    14    1
     2    14    15    1
     3    15    16    1
     4    16    17    1
     5    17     7    1
     6     7     8   ar
     7     8     9   ar
     8     9     1    1
     9     1     2    1
    10     2     3    1
    11     3     4    1
    12     4     5    1
    13     5    24    1
    14    24    25    2
    15    24    26   am
    16    26    28    1
    17    28    29    1
    18    29    30    1
    19    30    31   ar
    20    31    32   ar
    21    32    33   ar
    22    33    36    1
    23    36    37    3
    24    33    34   ar
    25    34    35   ar
    26     5     6    1
    27     9    10   ar
    28    10    11   ar
    29    11    20    1
    30    20    21    1
    31    20    22    1
    32    20    23    1
    33    11    12   ar
    34    17    18    1
    35    18    19    1
    36    19    14    1
    37    12     7   ar
    38     6     1    1
    39    35    30   ar
    40    26    27    1
@<TRIPOS>MOLECULE
*****
 37 40 0 0 0
SMALL
GASTEIGER

@<TRIPOS>ATOM
      1 N          62.7410   89.6636   11.1050 N.pl3   1  UNL1       -0.2926
      2 C          61.7078   90.0406   10.0852 C.3     1  UNL1        0.0922
      3 C          60.8389   88.9830    9.4713 C.3     1  UNL1        0.0220
      4 C          61.0034   87.5484    9.8774 C.3     1  UNL1        0.0126
      5 C          62.0367   87.1714   10.8973 C.3     1  UNL1        0.0963
      6 C          62.9055   88.2290   11.5111 C.3     1  UNL1        0.1012
      7 C          65.1547   92.7939   11.4594 C.ar    1  UNL1        0.1362
      8 C          64.2858   91.7364   10.8457 C.ar    1  UNL1        0.0686
      9 C          63.6099   90.7211   11.7188 C.ar    1  UNL1        0.1361
     10 N          63.8028   90.7634   13.2057 N.ar    1  UNL1       -0.2083
     11 C          64.6716   91.8209   13.8195 C.ar    1  UNL1        0.2374
     12 N          65.3476   92.8362   12.9463 N.ar    1  UNL1       -0.2083
     13 C          67.8584   96.8548    7.9668 C.3     1  UNL1        0.0897
     14 N          67.1825   95.8396    8.8399 N.3     1  UNL1       -0.2686
     15 C          67.6342   94.4094    8.8152 C.3     1  UNL1        0.0939
     16 C          66.9583   93.3942    9.6884 C.3     1  UNL1        0.1095
     17 N          65.8306   93.8091   10.5863 N.pl3   1  UNL1       -0.2903
     18 C          65.3789   95.2392   10.6109 C.3     1  UNL1        0.1095
     19 C          66.0548   96.2545    9.7378 C.3     1  UNL1        0.0939
     20 C          64.8645   91.8633   15.3065 C.3     1  UNL1        0.4524
     21 F          65.0575   91.9057   16.7934 F       1  UNL1       -0.1632
     22 F          66.0274   92.7939   15.1291 F       1  UNL1       -0.1632
     23 F          63.7017   90.9326   15.4839 F       1  UNL1       -0.1632
     24 C          62.2012   85.7368   11.3034 C.2     1  UNL1        0.2237
     25 O          61.3197   85.1527   12.3671 O.2     1  UNL1       -0.2751
     26 N          63.2473   84.8864   10.6457 N.am    1  UNL1       -0.3040
     27 H          63.8259   85.2698    9.9475 H       1  UNL1        0.1494
     28 C          63.4118   83.4518   11.0518 C.3     1  UNL1        0.0941
     29 C          64.1374   83.1096   12.3191 C.3     1  UNL1        0.0492
     30 C          63.8297   83.8546   13.5842 C.ar    1  UNL1       -0.0013
     31 C          64.6027   85.0918   13.9328 C.ar    1  UNL1       -0.0004
     32 C          64.2950   85.8368   15.1979 C.ar    1  UNL1        0.0293
     33 C          63.2143   85.3446   16.1142 C.ar    1  UNL1        0.1491
     34 N          62.4413   84.1073   15.7655 N.ar    1  UNL1       -0.2339
     35 C          62.7490   83.3623   14.5005 C.ar    1  UNL1        0.0954
     36 C          62.9066   86.0896   17.3792 C.1     1  UNL1        0.1198
     37 N          62.5989   86.8346   18.6443 N.1     1  UNL1       -0.1893
@<TRIPOS>BOND
     1    13    14    1
     2    14    15    1
     3    15    16    1
     4    16    17    1
     5    17     7    1
     6     7     8   ar
     7     8     9   ar
     8     9     1    1
     9     1     2    1
    10     2     3    1
    11     3     4    1
    12     4     5    1
    13     5    24    1
    14    24    25    2
    15    24    26   am
    16    26    28    1
    17    28    29    1
    18    29    30    1
    19    30    31   ar
    20    31    32   ar
    21    32    33   ar
    22    33    36    1
    23    36    37    3
    24    33    34   ar
    25    34    35   ar
    26     5     6    1
    27     9    10   ar
    28    10    11   ar
    29    11    20    1
    30    20    21    1
    31    20    22    1
    32    20    23    1
    33    11    12   ar
    34    17    18    1
    35    18    19    1
    36    19    14    1
    37    12     7   ar
    38     6     1    1
    39    35    30   ar
    40    26    27    1
@<TRIPOS>MOLECULE
*****
 37 40 0 0 0
SMALL
GASTEIGER

@<TRIPOS>ATOM
      1 N          62.3930   86.5578   10.2179 N.pl3   1  UNL1       -0.2926
      2 C          62.3674   86.5796    8.7183 C.3     1  UNL1        0.0922
      3 C          62.7602   85.3566    7.9436 C.3     1  UNL1        0.0220
      4 C          63.1784   84.1118    8.6685 C.3     1  UNL1        0.0126
      5 C          63.2040   84.0900   10.1682 C.3     1  UNL1        0.0963
      6 C          62.8113   85.3130   10.9429 C.3     1  UNL1        0.1012
      7 C          62.6650   89.9028   12.3362 C.ar    1  UNL1        0.1362
      8 C          63.0577   88.6798   11.5615 C.ar    1  UNL1        0.0686
      9 C          62.0003   87.7808   10.9926 C.ar    1  UNL1        0.1361
     10 N          60.5502   88.1047   11.1984 N.ar    1  UNL1       -0.2083
     11 C          60.1576   89.3276   11.9731 C.ar    1  UNL1        0.2374
     12 N          61.2150   90.2267   12.5420 N.ar    1  UNL1       -0.2083
     13 C          66.8946   93.4990   14.6117 C.3     1  UNL1        0.0897
     14 N          65.8372   92.5999   14.0428 N.3     1  UNL1       -0.2686
     15 C          65.4994   92.6696   12.5830 C.3     1  UNL1        0.0939
     16 C          64.4420   91.7705   12.0142 C.3     1  UNL1        0.1095
     17 N          63.7224   90.8018   12.9051 N.pl3   1  UNL1       -0.2903
     18 C          64.0602   90.7322   14.3648 C.3     1  UNL1        0.1095
     19 C          65.1176   91.6312   14.9337 C.3     1  UNL1        0.0939
     20 C          58.7075   89.6516   12.1789 C.3     1  UNL1        0.4524
     21 F          57.2574   89.9755   12.3847 F       1  UNL1       -0.1632
     22 F          58.8640   90.8852   11.3401 F       1  UNL1       -0.1632
     23 F          58.5509   88.4180   13.0178 F       1  UNL1       -0.1632
     24 C          63.6223   82.8453   10.8932 C.2     1  UNL1        0.2237
     25 O          65.0775   82.5670   11.1277 O.2     1  UNL1       -0.2751
     26 N          62.5853   81.8787   11.3837 N.am    1  UNL1       -0.3040
     27 H          61.6302   82.0613   11.2297 H       1  UNL1        0.1494
     28 C          63.0036   80.6339   12.1086 C.3     1  UNL1        0.0941
     29 C          63.3714   80.6998   13.5613 C.3     1  UNL1        0.0492
     30 C          63.2911   82.0045   14.2969 C.ar    1  UNL1       -0.0013
     31 C          64.5368   82.8012   14.5490 C.ar    1  UNL1       -0.0004
     32 C          64.4565   84.1060   15.2846 C.ar    1  UNL1        0.0293
     33 C          63.1306   84.6141   15.7681 C.ar    1  UNL1        0.1491
     34 N          61.8850   83.8174   15.5159 N.ar    1  UNL1       -0.2339
     35 C          61.9652   82.5126   14.7803 C.ar    1  UNL1        0.0954
     36 C          63.0503   85.9189   16.5037 C.1     1  UNL1        0.1198
     37 N          62.9701   87.2237   17.2393 N.1     1  UNL1       -0.1893
@<TRIPOS>BOND
     1    13    14    1
     2    14    15    1
     3    15    16    1
     4    16    17    1
     5    17     7    1
     6     7     8   ar
     7     8     9   ar
     8     9     1    1
     9     1     2    1
    10     2     3    1
    11     3     4    1
    12     4     5    1
    13     5    24    1
    14    24    25    2
    15    24    26   am
    16    26    28    1
    17    28    29    1
    18    29    30    1
    19    30    31   ar
    20    31    32   ar
    21    32    33   ar
    22    33    36    1
    23    36    37    3
    24    33    34   ar
    25    34    35   ar
    26     5     6    1
    27     9    10   ar
    28    10    11   ar
    29    11    20    1
    30    20    21    1
    31    20    22    1
    32    20    23    1
    33    11    12   ar
    34    17    18    1
    35    18    19    1
    36    19    14    1
    37    12     7   ar
    38     6     1    1
    39    35    30   ar
    40    26    27    1
@<TRIPOS>MOLECULE
*****
 37 40 0 0 0
SMALL
GASTEIGER

@<TRIPOS>ATOM
      1 N          64.9065   90.6777   15.1852 N.pl3   1  UNL1       -0.2926
      2 C          63.8345   90.9684   16.1933 C.3     1  UNL1        0.0922
      3 C          62.8753   89.8894   16.6005 C.3     1  UNL1        0.0220
      4 C          62.9882   88.5196   15.9995 C.3     1  UNL1        0.0126
      5 C          64.0603   88.2290   14.9914 C.3     1  UNL1        0.0963
      6 C          65.0193   89.3080   14.5842 C.3     1  UNL1        0.1012
      7 C          66.6545   93.5325   13.0533 C.ar    1  UNL1        0.1362
      8 C          65.6954   92.4535   13.4605 C.ar    1  UNL1        0.0686
      9 C          65.8656   91.7568   14.7780 C.ar    1  UNL1        0.1361
     10 N          66.9949   92.1391   15.6882 N.ar    1  UNL1       -0.2083
     11 C          67.9540   93.2180   15.2810 C.ar    1  UNL1        0.2374
     12 N          67.7838   93.9147   13.9635 N.ar    1  UNL1       -0.2083
     13 C          65.9738   96.3192    7.7836 C.3     1  UNL1        0.0897
     14 N          66.1439   95.6225    9.1010 N.3     1  UNL1       -0.2686
     15 C          66.6304   94.2042    9.1420 C.3     1  UNL1        0.0939
     16 C          66.8006   93.5075   10.4595 C.3     1  UNL1        0.1095
     17 N          66.4843   94.2291   11.7359 N.pl3   1  UNL1       -0.2903
     18 C          65.9979   95.6475   11.6948 C.3     1  UNL1        0.1095
     19 C          65.8277   96.3442   10.3774 C.3     1  UNL1        0.0939
     20 C          69.0833   93.6004   16.1912 C.3     1  UNL1        0.4524
     21 F          70.2126   93.9827   17.1014 F       1  UNL1       -0.1632
     22 F          69.3882   92.1500   16.4221 F       1  UNL1       -0.1632
     23 F          68.7784   95.0508   15.9604 F       1  UNL1       -0.1632
     24 C          64.1732   86.8593   14.3905 C.2     1  UNL1        0.2237
     25 O          65.0891   85.8433   15.0060 O.2     1  UNL1       -0.2751
     26 N          63.3701   86.5055   13.1739 N.am    1  UNL1       -0.3040
     27 H          62.7689   87.1723   12.7699 H       1  UNL1        0.1494
     28 C          63.4830   85.1358   12.5729 C.3     1  UNL1        0.0941
     29 C          62.4288   84.6427   11.6266 C.3     1  UNL1        0.0492
     30 C          61.7898   85.5909   10.6557 C.ar    1  UNL1       -0.0013
     31 C          62.0278   85.4302    9.1834 C.ar    1  UNL1       -0.0004
     32 C          61.3887   86.3784    8.2125 C.ar    1  UNL1        0.0293
     33 C          60.5118   87.4872    8.7139 C.ar    1  UNL1        0.1491
     34 N          60.2738   87.6479   10.1861 N.ar    1  UNL1       -0.2339
     35 C          60.9128   86.6997   11.1570 C.ar    1  UNL1        0.0954
     36 C          59.8727   88.4354    7.7430 C.1     1  UNL1        0.1198
     37 N          59.2337   89.3835    6.7721 N.1     1  UNL1       -0.1893
@<TRIPOS>BOND
     1    13    14    1
     2    14    15    1
     3    15    16    1
     4    16    17    1
     5    17     7    1
     6     7     8   ar
     7     8     9   ar
     8     9     1    1
     9     1     2    1
    10     2     3    1
    11     3     4    1
    12     4     5    1
    13     5    24    1
    14    24    25    2
    15    24    26   am
    16    26    28    1
    17    28    29    1
    18    29    30    1
    19    30    31   ar
    20    31    32   ar
    21    32    33   ar
    22    33    36    1
    23    36    37    3
    24    33    34   ar
    25    34    35   ar
    26     5     6    1
    27     9    10   ar
    28    10    11   ar
    29    11    20    1
    30    20    21    1
    31    20    22    1
    32    20    23    1
    33    11    12   ar
    34    17    18    1
    35    18    19    1
    36    19    14    1
    37    12     7   ar
    38     6     1    1
    39    35    30   ar
    40    26    27    1
@<TRIPOS>MOLECULE
*****
 37 40 0 0 0
SMALL
GASTEIGER

@<TRIPOS>ATOM
      1 N          63.9895   90.8255   14.0303 N.pl3   1  UNL1       -0.2926
      2 C          63.6966   90.2545   15.3860 C.3     1  UNL1        0.0922
      3 C          62.4703   89.4169   15.5981 C.3     1  UNL1        0.0220
      4 C          61.5371   89.1505   14.4544 C.3     1  UNL1        0.0126
      5 C          61.8301   89.7216   13.0986 C.3     1  UNL1        0.0963
      6 C          63.0563   90.5591   12.8866 C.3     1  UNL1        0.1012
      7 C          66.5543   93.3714   12.3899 C.ar    1  UNL1        0.1362
      8 C          65.3281   92.5339   12.6020 C.ar    1  UNL1        0.0686
      9 C          65.2158   91.6631   13.8182 C.ar    1  UNL1        0.1361
     10 N          66.3296   91.6298   14.8223 N.ar    1  UNL1       -0.2083
     11 C          67.5558   92.4673   14.6102 C.ar    1  UNL1        0.2374
     12 N          67.6681   93.3381   13.3940 N.ar    1  UNL1       -0.2083
     13 C          67.0036   96.8546    7.5252 C.3     1  UNL1        0.0897
     14 N          66.8912   95.9838    8.7414 N.3     1  UNL1       -0.2686
     15 C          66.2221   96.5056    9.9783 C.3     1  UNL1        0.0939
     16 C          66.1098   95.6348   11.1944 C.3     1  UNL1        0.1095
     17 N          66.6666   94.2422   11.1737 N.pl3   1  UNL1       -0.2903
     18 C          67.3357   93.7204    9.9369 C.3     1  UNL1        0.1095
     19 C          67.4481   94.5912    8.7207 C.3     1  UNL1        0.0939
     20 C          68.6697   92.4340   15.6142 C.3     1  UNL1        0.4524
     21 F          69.7836   92.4008   16.6182 F       1  UNL1       -0.1632
     22 F          69.6737   92.5207   14.5032 F       1  UNL1       -0.1632
     23 F          67.6657   92.3473   16.7253 F       1  UNL1       -0.1632
     24 C          60.8968   89.4551   11.9549 C.2     1  UNL1        0.2237
     25 O          59.4692   89.0812   12.2232 O.2     1  UNL1       -0.2751
     26 N          61.3913   89.5627   10.5427 N.am    1  UNL1       -0.3040
     27 H          62.3283   89.8081   10.3666 H       1  UNL1        0.1494
     28 C          60.4580   89.2962    9.3990 C.3     1  UNL1        0.0941
     29 C          60.1848   87.8861    8.9668 C.3     1  UNL1        0.0492
     30 C          61.1221   86.7847    9.3649 C.ar    1  UNL1       -0.0013
     31 C          62.0384   86.1748    8.3460 C.ar    1  UNL1       -0.0004
     32 C          62.9757   85.0734    8.7440 C.ar    1  UNL1        0.0293
     33 C          62.9966   84.5819   10.1610 C.ar    1  UNL1        0.1491
     34 N          62.0803   85.1919   11.1800 N.ar    1  UNL1       -0.2339
     35 C          61.1430   86.2933   10.7819 C.ar    1  UNL1        0.0954
     36 C          63.9339   83.4805   10.5591 C.1     1  UNL1        0.1198
     37 N          64.8711   82.3791   10.9572 N.1     1  UNL1       -0.1893
@<TRIPOS>BOND
     1    13    14    1
     2    14    15    1
     3    15    16    1
     4    16    17    1
     5    17     7    1
     6     7     8   ar
     7     8     9   ar
     8     9     1    1
     9     1     2    1
    10     2     3    1
    11     3     4    1
    12     4     5    1
    13     5    24    1
    14    24    25    2
    15    24    26   am
    16    26    28    1
    17    28    29    1
    18    29    30    1
    19    30    31   ar
    20    31    32   ar
    21    32    33   ar
    22    33    36    1
    23    36    37    3
    24    33    34   ar
    25    34    35   ar
    26     5     6    1
    27     9    10   ar
    28    10    11   ar
    29    11    20    1
    30    20    21    1
    31    20    22    1
    32    20    23    1
    33    11    12   ar
    34    17    18    1
    35    18    19    1
    36    19    14    1
    37    12     7   ar
    38     6     1    1
    39    35    30   ar
    40    26    27    1
@<TRIPOS>MOLECULE
*****
 37 40 0 0 0
SMALL
GASTEIGER

@<TRIPOS>ATOM
      1 N          62.3512   90.3943   11.5013 N.pl3   1  UNL1       -0.2926
      2 C          61.0037   90.8001   12.0205 C.3     1  UNL1        0.0922
      3 C          59.7876   90.0013   11.6554 C.3     1  UNL1        0.0220
      4 C          59.9191   88.7969   10.7711 C.3     1  UNL1        0.0126
      5 C          61.2667   88.3912   10.2519 C.3     1  UNL1        0.0963
      6 C          62.4827   89.1899   10.6170 C.3     1  UNL1        0.1012
      7 C          65.3645   92.9646   11.2488 C.ar    1  UNL1        0.1362
      8 C          64.1485   92.1659   10.8837 C.ar    1  UNL1        0.0686
      9 C          63.5672   91.1931   11.8665 C.ar    1  UNL1        0.1361
     10 N          64.2020   91.0190   13.2143 N.ar    1  UNL1       -0.2083
     11 C          65.4180   91.8178   13.5794 C.ar    1  UNL1        0.2374
     12 N          65.9993   92.7905   12.5966 N.ar    1  UNL1       -0.2083
     13 C          67.6894   96.8558    7.3177 C.3     1  UNL1        0.0897
     14 N          67.1082   95.8830    8.3004 N.3     1  UNL1       -0.2686
     15 C          65.9875   96.3075    9.2026 C.3     1  UNL1        0.0939
     16 C          65.4063   95.3347   10.1853 C.3     1  UNL1        0.1095
     17 N          65.9457   93.9374   10.2660 N.pl3   1  UNL1       -0.2903
     18 C          67.0664   93.5129    9.3639 C.3     1  UNL1        0.1095
     19 C          67.6476   94.4857    8.3811 C.3     1  UNL1        0.0939
     20 C          66.0529   91.6437   14.9273 C.3     1  UNL1        0.4524
     21 F          66.6877   91.4697   16.2751 F       1  UNL1       -0.1632
     22 F          66.3136   93.1193   14.9950 F       1  UNL1       -0.1632
     23 F          65.7921   90.1681   14.8596 F       1  UNL1       -0.1632
     24 C          61.3982   87.1867    9.3676 C.2     1  UNL1        0.2237
     25 O          60.1708   86.4663    8.8940 O.2     1  UNL1       -0.2751
     26 N          62.7573   86.7026    8.9569 N.am    1  UNL1       -0.3040
     27 H          63.5630   87.1754    9.2677 H       1  UNL1        0.1494
     28 C          62.8888   85.4982    8.0726 C.3     1  UNL1        0.0941
     29 C          63.4504   84.2210    8.6235 C.3     1  UNL1        0.0492
     30 C          63.5105   84.0064   10.1068 C.ar    1  UNL1       -0.0013
     31 C          62.6555   84.8344   11.0197 C.ar    1  UNL1       -0.0004
     32 C          62.7156   84.6198   12.5030 C.ar    1  UNL1        0.0293
     33 C          63.6307   83.5771   13.0735 C.ar    1  UNL1        0.1491
     34 N          64.4856   82.7491   12.1606 N.ar    1  UNL1       -0.2339
     35 C          64.4255   82.9637   10.6773 C.ar    1  UNL1        0.0954
     36 C          63.6908   83.3625   14.5569 C.1     1  UNL1        0.1198
     37 N          63.7509   83.1479   16.0402 N.1     1  UNL1       -0.1893
@<TRIPOS>BOND
     1    13    14    1
     2    14    15    1
     3    15    16    1
     4    16    17    1
     5    17     7    1
     6     7     8   ar
     7     8     9   ar
     8     9     1    1
     9     1     2    1
    10     2     3    1
    11     3     4    1
    12     4     5    1
    13     5    24    1
    14    24    25    2
    15    24    26   am
    16    26    28    1
    17    28    29    1
    18    29    30    1
    19    30    31   ar
    20    31    32   ar
    21    32    33   ar
    22    33    36    1
    23    36    37    3
    24    33    34   ar
    25    34    35   ar
    26     5     6    1
    27     9    10   ar
    28    10    11   ar
    29    11    20    1
    30    20    21    1
    31    20    22    1
    32    20    23    1
    33    11    12   ar
    34    17    18    1
    35    18    19    1
    36    19    14    1
    37    12     7   ar
    38     6     1    1
    39    35    30   ar
    40    26    27    1
@<TRIPOS>MOLECULE
*****
 37 40 0 0 0
SMALL
GASTEIGER

@<TRIPOS>ATOM
      1 N          63.7541   87.7401   15.2079 N.pl3   1  UNL1       -0.2926
      2 C          63.3309   87.8189   16.6448 C.3     1  UNL1        0.0922
      3 C          63.0072   86.5646   17.4012 C.3     1  UNL1        0.0220
      4 C          63.1069   85.2316   16.7207 C.3     1  UNL1        0.0126
      5 C          63.5302   85.1529   15.2837 C.3     1  UNL1        0.0963
      6 C          63.8538   86.4071   14.5274 C.3     1  UNL1        0.1012
      7 C          65.4724   91.1716   14.1964 C.ar    1  UNL1        0.1362
      8 C          65.1487   89.9173   14.9528 C.ar    1  UNL1        0.0686
      9 C          64.0778   88.9944   14.4515 C.ar    1  UNL1        0.1361
     10 N          63.3304   89.3258   13.1939 N.ar    1  UNL1       -0.2083
     11 C          63.6541   90.5800   12.4376 C.ar    1  UNL1        0.2374
     12 N          64.7251   91.5029   12.9388 N.ar    1  UNL1       -0.2083
     13 C          69.7564   94.8631   16.2015 C.3     1  UNL1        0.0897
     14 N          68.6854   93.9402   15.7003 N.3     1  UNL1       -0.2686
     15 C          67.5786   94.4731   14.8395 C.3     1  UNL1        0.0939
     16 C          66.5076   93.5502   14.3382 C.3     1  UNL1        0.1095
     17 N          66.5434   92.0944   14.6977 N.pl3   1  UNL1       -0.2903
     18 C          67.6502   91.5615   15.5585 C.3     1  UNL1        0.1095
     19 C          68.7212   92.4844   16.0597 C.3     1  UNL1        0.0939
     20 C          62.9067   90.9115   11.1799 C.3     1  UNL1        0.4524
     21 F          62.1593   91.2428    9.9223 F       1  UNL1       -0.1632
     22 F          61.6410   90.3928   11.7954 F       1  UNL1       -0.1632
     23 F          64.1724   91.4301   10.5644 F       1  UNL1       -0.1632
     24 C          63.6298   83.8198   14.6032 C.2     1  UNL1        0.2237
     25 O          62.7204   82.6992   15.0120 O.2     1  UNL1       -0.2751
     26 N          64.6389   83.6075   13.5138 N.am    1  UNL1       -0.3040
     27 H          65.2358   84.3430   13.2455 H       1  UNL1        0.1494
     28 C          64.7386   82.2744   12.8333 C.3     1  UNL1        0.0941
     29 C          64.2514   82.1137   11.4238 C.3     1  UNL1        0.0492
     30 C          63.5205   83.2370   10.7502 C.ar    1  UNL1       -0.0013
     31 C          63.8717   83.6238    9.3441 C.ar    1  UNL1       -0.0004
     32 C          63.1407   84.7472    8.6705 C.ar    1  UNL1        0.0293
     33 C          62.0585   85.4836    9.4029 C.ar    1  UNL1        0.1491
     34 N          61.7072   85.0967   10.8089 N.ar    1  UNL1       -0.2339
     35 C          62.4382   83.9734   11.4825 C.ar    1  UNL1        0.0954
     36 C          61.3275   86.6069    8.7292 C.1     1  UNL1        0.1198
     37 N          60.5965   87.7302    8.0556 N.1     1  UNL1       -0.1893
@<TRIPOS>BOND
     1    13    14    1
     2    14    15    1
     3    15    16    1
     4    16    17    1
     5    17     7    1
     6     7     8   ar
     7     8     9   ar
     8     9     1    1
     9     1     2    1
    10     2     3    1
    11     3     4    1
    12     4     5    1
    13     5    24    1
    14    24    25    2
    15    24    26   am
    16    26    28    1
    17    28    29    1
    18    29    30    1
    19    30    31   ar
    20    31    32   ar
    21    32    33   ar
    22    33    36    1
    23    36    37    3
    24    33    34   ar
    25    34    35   ar
    26     5     6    1
    27     9    10   ar
    28    10    11   ar
    29    11    20    1
    30    20    21    1
    31    20    22    1
    32    20    23    1
    33    11    12   ar
    34    17    18    1
    35    18    19    1
    36    19    14    1
    37    12     7   ar
    38     6     1    1
    39    35    30   ar
    40    26    27    1
@<TRIPOS>MOLECULE
*****
 37 40 0 0 0
SMALL
GASTEIGER

@<TRIPOS>ATOM
      1 N          61.1850   93.1874    1.3030 N.pl3   1  UNL1       -0.2926
      2 C          62.6351   92.8162    1.3998 C.3     1  UNL1        0.0922
      3 C          63.1308   92.0292    2.5767 C.3     1  UNL1        0.0220
      4 C          62.1764   91.6134    3.6566 C.3     1  UNL1        0.0126
      5 C          60.7263   91.9847    3.5597 C.3     1  UNL1        0.0963
      6 C          60.2306   92.7716    2.3829 C.3     1  UNL1        0.1012
      7 C          58.7230   94.9985   -1.2286 C.ar    1  UNL1        0.1362
      8 C          59.2188   94.2115   -0.0519 C.ar    1  UNL1        0.0686
      9 C          60.6892   93.9744    0.1261 C.ar    1  UNL1        0.1361
     10 N          61.6639   94.5243   -0.8727 N.ar    1  UNL1       -0.2083
     11 C          61.1681   95.3113   -2.0494 C.ar    1  UNL1        0.2374
     12 N          59.6977   95.5484   -2.2274 N.ar    1  UNL1       -0.2083
     13 C          52.8414   95.9468   -1.9405 C.3     1  UNL1        0.0897
     14 N          54.3118   95.7097   -1.7625 N.3     1  UNL1       -0.2686
     15 C          54.8720   94.3264   -1.9126 C.3     1  UNL1        0.0939
     16 C          56.3424   94.0893   -1.7346 C.3     1  UNL1        0.1095
     17 N          57.2526   95.2356   -1.4066 N.pl3   1  UNL1       -0.2903
     18 C          56.6924   96.6189   -1.2565 C.3     1  UNL1        0.1095
     19 C          55.2220   96.8560   -1.4345 C.3     1  UNL1        0.0939
     20 C          62.1428   95.8613   -3.0483 C.3     1  UNL1        0.4524
     21 F          63.1174   96.4112   -4.0471 F       1  UNL1       -0.1632
     22 F          62.9685   96.4268   -1.9311 F       1  UNL1       -0.1632
     23 F          61.3170   95.2958   -4.1655 F       1  UNL1       -0.1632
     24 C          59.7719   91.5689    4.6396 C.2     1  UNL1        0.2237
     25 O          58.4536   92.2693    4.7860 O.2     1  UNL1       -0.2751
     26 N          60.1359   90.4526    5.5732 N.am    1  UNL1       -0.3040
     27 H          61.0011   89.9929    5.4772 H       1  UNL1        0.1494
     28 C          59.1815   90.0368    6.6532 C.3     1  UNL1        0.0941
     29 C          59.0559   88.5896    7.0267 C.3     1  UNL1        0.0492
     30 C          59.8586   88.0369    8.1671 C.ar    1  UNL1       -0.0013
     31 C          60.2327   86.5845    8.1864 C.ar    1  UNL1       -0.0004
     32 C          61.0354   86.0319    9.3267 C.ar    1  UNL1        0.0293
     33 C          61.4639   86.9317   10.4477 C.ar    1  UNL1        0.1491
     34 N          61.0898   88.3841   10.4283 N.ar    1  UNL1       -0.2339
     35 C          60.2871   88.9367    9.2880 C.ar    1  UNL1        0.0954
     36 C          62.2666   86.3791   11.5880 C.1     1  UNL1        0.1198
     37 N          63.0693   85.8264   12.7283 N.1     1  UNL1       -0.1893
@<TRIPOS>BOND
     1    13    14    1
     2    14    15    1
     3    15    16    1
     4    16    17    1
     5    17     7    1
     6     7     8   ar
     7     8     9   ar
     8     9     1    1
     9     1     2    1
    10     2     3    1
    11     3     4    1
    12     4     5    1
    13     5    24    1
    14    24    25    2
    15    24    26   am
    16    26    28    1
    17    28    29    1
    18    29    30    1
    19    30    31   ar
    20    31    32   ar
    21    32    33   ar
    22    33    36    1
    23    36    37    3
    24    33    34   ar
    25    34    35   ar
    26     5     6    1
    27     9    10   ar
    28    10    11   ar
    29    11    20    1
    30    20    21    1
    31    20    22    1
    32    20    23    1
    33    11    12   ar
    34    17    18    1
    35    18    19    1
    36    19    14    1
    37    12     7   ar
    38     6     1    1
    39    35    30   ar
    40    26    27    1
@<TRIPOS>MOLECULE
*****
 37 40 0 0 0
SMALL
GASTEIGER

@<TRIPOS>ATOM
      1 N          63.3673   89.6008   14.3141 N.pl3   1  UNL1       -0.2926
      2 C          63.3541   90.5917   15.4401 C.3     1  UNL1        0.0922
      3 C          63.3610   90.1120   16.8614 C.3     1  UNL1        0.0220
      4 C          63.3811   88.6414   17.1565 C.3     1  UNL1        0.0126
      5 C          63.3942   87.6506   16.0304 C.3     1  UNL1        0.0963
      6 C          63.3873   88.1303   14.6092 C.3     1  UNL1        0.1012
      7 C          64.2830   91.6578   11.0460 C.ar    1  UNL1        0.1362
      8 C          64.2899   91.1782   12.4672 C.ar    1  UNL1        0.0686
      9 C          63.3603   90.0805   12.8928 C.ar    1  UNL1        0.1361
     10 N          62.4239   89.4626   11.8972 N.ar    1  UNL1       -0.2083
     11 C          62.4170   89.9423   10.4761 C.ar    1  UNL1        0.2374
     12 N          63.3466   91.0399   10.0505 N.ar    1  UNL1       -0.2083
     13 C          68.0012   96.0483    9.3436 C.3     1  UNL1        0.0897
     14 N          67.0717   94.9507    9.7692 N.3     1  UNL1       -0.2686
     15 C          67.5030   93.5182    9.6602 C.3     1  UNL1        0.0939
     16 C          66.5735   92.4206   10.0858 C.3     1  UNL1        0.1095
     17 N          65.2126   92.7555   10.6204 N.pl3   1  UNL1       -0.2903
     18 C          64.7812   94.1879   10.7294 C.3     1  UNL1        0.1095
     19 C          65.7108   95.2856   10.3038 C.3     1  UNL1        0.0939
     20 C          61.4806   89.3244    9.4804 C.3     1  UNL1        0.4524
     21 F          60.5442   88.7064    8.4848 F       1  UNL1       -0.1632
     22 F          62.4146   88.1611    9.3239 F       1  UNL1       -0.1632
     23 F          60.5465   90.4876    9.6369 F       1  UNL1       -0.1632
     24 C          63.4143   86.1800   16.3255 C.2     1  UNL1        0.2237
     25 O          62.6651   85.6422   17.5084 O.2     1  UNL1       -0.2751
     26 N          64.1837   85.2473   15.4376 N.am    1  UNL1       -0.3040
     27 H          64.6754   85.6003   14.6612 H       1  UNL1        0.1494
     28 C          64.2037   83.7768   15.7328 C.3     1  UNL1        0.0941
     29 C          63.8765   82.7903   14.6513 C.3     1  UNL1        0.0492
     30 C          63.6762   83.2618   13.2415 C.ar    1  UNL1       -0.0013
     31 C          64.4998   82.6791   12.1316 C.ar    1  UNL1       -0.0004
     32 C          64.2994   83.1506   10.7218 C.ar    1  UNL1        0.0293
     33 C          63.2755   84.2049   10.4219 C.ar    1  UNL1        0.1491
     34 N          62.4519   84.7877   11.5319 N.ar    1  UNL1       -0.2339
     35 C          62.6522   84.3161   12.9417 C.ar    1  UNL1        0.0954
     36 C          63.0751   84.6765    9.0122 C.1     1  UNL1        0.1198
     37 N          62.8748   85.1480    7.6024 N.1     1  UNL1       -0.1893
@<TRIPOS>BOND
     1    13    14    1
     2    14    15    1
     3    15    16    1
     4    16    17    1
     5    17     7    1
     6     7     8   ar
     7     8     9   ar
     8     9     1    1
     9     1     2    1
    10     2     3    1
    11     3     4    1
    12     4     5    1
    13     5    24    1
    14    24    25    2
    15    24    26   am
    16    26    28    1
    17    28    29    1
    18    29    30    1
    19    30    31   ar
    20    31    32   ar
    21    32    33   ar
    22    33    36    1
    23    36    37    3
    24    33    34   ar
    25    34    35   ar
    26     5     6    1
    27     9    10   ar
    28    10    11   ar
    29    11    20    1
    30    20    21    1
    31    20    22    1
    32    20    23    1
    33    11    12   ar
    34    17    18    1
    35    18    19    1
    36    19    14    1
    37    12     7   ar
    38     6     1    1
    39    35    30   ar
    40    26    27    1
