@<TRIPOS>MOLECULE
*****
 16 17 0 0 0
SMALL
GASTEIGER

@<TRIPOS>ATOM
      1 C          66.1728   93.4201   12.4420 C.ar    1  UNL1        0.1386
      2 C          65.1733   92.4870   11.8253 C.ar    1  UNL1        0.0370
      3 C          64.5374   91.4128   12.6569 C.ar    1  UNL1        0.0062
      4 C          64.9011   91.2715   14.1053 C.ar    1  UNL1        0.0364
      5 C          65.9006   92.2046   14.7220 C.ar    1  UNL1        0.0062
      6 C          66.5364   93.2788   13.8904 C.ar    1  UNL1        0.0370
      7 C          64.2652   90.1973   14.9369 C.ar    1  UNL1        0.1664
      8 C          64.3065   88.7244   14.6562 C.ar    1  UNL1        0.1396
      9 N          63.5432   88.0241   15.7411 N.ar    1  UNL1       -0.2026
     10 C          63.0301   89.0642   16.6923 C.ar    1  UNL1        0.2851
     11 O          63.4763   90.4073   16.1954 O.2     1  UNL1       -0.4311
     12 O          66.8087   94.4943   11.6104 O.3     1  UNL1       -0.4755
     13 C          66.6396   94.4879   10.1200 C.3     1  UNL1        0.2054
     14 C          67.8449   94.4352    9.2287 C.3     1  UNL1        0.0473
     15 C          68.1250   91.9067    9.7559 C.3     1  UNL1        0.0001
     16 C          68.5990   93.1493    9.0622 C.3     1  UNL1        0.0038
@<TRIPOS>BOND
     1    15    16    1
     2    16    14    1
     3    14    13    1
     4    13    12    1
     5    12     1    1
     6     1     2   ar
     7     2     3   ar
     8     3     4   ar
     9     4     7    1
    10     7     8   ar
    11     8     9   ar
    12     9    10   ar
    13    10    11   ar
    14     4     5   ar
    15     5     6   ar
    16     6     1   ar
    17    11     7   ar
@<TRIPOS>MOLECULE
*****
 16 17 0 0 0
SMALL
GASTEIGER

@<TRIPOS>ATOM
      1 C          63.6556   83.7382   10.7250 C.ar    1  UNL1        0.1386
      2 C          62.7559   84.5136   11.6411 C.ar    1  UNL1        0.0370
      3 C          61.9078   85.6243   11.0961 C.ar    1  UNL1        0.0062
      4 C          61.9593   85.9595    9.6349 C.ar    1  UNL1        0.0364
      5 C          62.8589   85.1841    8.7189 C.ar    1  UNL1        0.0062
      6 C          63.7071   84.0734    9.2639 C.ar    1  UNL1        0.0370
      7 C          61.1111   87.0702    9.0899 C.ar    1  UNL1        0.1664
      8 C          61.0326   88.4668    9.6315 C.ar    1  UNL1        0.1396
      9 N          60.0656   89.2390    8.7839 N.ar    1  UNL1       -0.2026
     10 C          59.5464   88.3197    7.7184 C.ar    1  UNL1        0.2851
     11 O          60.1926   86.9793    7.9076 O.2     1  UNL1       -0.4311
     12 O          64.5037   82.6275   11.2700 O.3     1  UNL1       -0.4755
     13 C          64.2931   82.1426   12.6737 C.3     1  UNL1        0.2054
     14 C          63.1540   81.2175   12.9847 C.3     1  UNL1        0.0473
     15 C          60.8358   80.8162   14.0870 C.3     1  UNL1        0.0001
     16 C          62.0718   81.6512   13.9286 C.3     1  UNL1        0.0038
@<TRIPOS>BOND
     1    15    16    1
     2    16    14    1
     3    14    13    1
     4    13    12    1
     5    12     1    1
     6     1     2   ar
     7     2     3   ar
     8     3     4   ar
     9     4     7    1
    10     7     8   ar
    11     8     9   ar
    12     9    10   ar
    13    10    11   ar
    14     4     5   ar
    15     5     6   ar
    16     6     1   ar
    17    11     7   ar
@<TRIPOS>MOLECULE
*****
 16 17 0 0 0
SMALL
GASTEIGER

@<TRIPOS>ATOM
      1 C          62.3148   89.9235   11.7679 C.ar    1  UNL1        0.1386
      2 C          63.2820   90.3539   12.8306 C.ar    1  UNL1        0.0370
      3 C          64.3593   91.3461   12.5068 C.ar    1  UNL1        0.0062
      4 C          64.4694   91.9080   11.1205 C.ar    1  UNL1        0.0364
      5 C          63.5023   91.4776   10.0578 C.ar    1  UNL1        0.0062
      6 C          62.4250   90.4853   10.3815 C.ar    1  UNL1        0.0370
      7 C          65.5468   92.9003   10.7968 C.ar    1  UNL1        0.1664
      8 C          66.9668   92.5749   10.4396 C.ar    1  UNL1        0.1396
      9 N          67.6909   93.8657   10.1954 N.ar    1  UNL1       -0.2026
     10 C          66.7183   94.9889   10.4018 C.ar    1  UNL1        0.2851
     11 O          65.3932   94.3922   10.7734 O.2     1  UNL1       -0.4311
     12 O          61.2375   88.9312   12.0916 O.3     1  UNL1       -0.4755
     13 C          60.5970   88.1347   10.9938 C.3     1  UNL1        0.2054
     14 C          61.2512   86.8791   10.4982 C.3     1  UNL1        0.0473
     15 C          62.6315   85.6265    8.6883 C.3     1  UNL1        0.0001
     16 C          62.0338   86.8959    9.2186 C.3     1  UNL1        0.0038
@<TRIPOS>BOND
     1    15    16    1
     2    16    14    1
     3    14    13    1
     4    13    12    1
     5    12     1    1
     6     1     2   ar
     7     2     3   ar
     8     3     4   ar
     9     4     7    1
    10     7     8   ar
    11     8     9   ar
    12     9    10   ar
    13    10    11   ar
    14     4     5   ar
    15     5     6   ar
    16     6     1   ar
    17    11     7   ar
@<TRIPOS>MOLECULE
*****
 16 17 0 0 0
SMALL
GASTEIGER

@<TRIPOS>ATOM
      1 C          62.5422   90.4793   10.8642 C.ar    1  UNL1        0.1386
      2 C          62.7010   90.0675   12.2978 C.ar    1  UNL1        0.0370
      3 C          63.8161   90.6381   13.1229 C.ar    1  UNL1        0.0062
      4 C          64.7724   91.6206   12.5146 C.ar    1  UNL1        0.0364
      5 C          64.6136   92.0325   11.0810 C.ar    1  UNL1        0.0062
      6 C          63.4984   91.4619   10.2558 C.ar    1  UNL1        0.0370
      7 C          65.8875   92.1913   13.3397 C.ar    1  UNL1        0.1664
      8 C          67.3544   92.0384   13.0659 C.ar    1  UNL1        0.1396
      9 N          68.1050   92.7676   14.1406 N.ar    1  UNL1       -0.2026
     10 C          67.1020   93.3712   15.0785 C.ar    1  UNL1        0.2851
     11 O          65.7316   93.0150   14.5836 O.2     1  UNL1       -0.4311
     12 O          61.4271   89.9087   10.0391 O.3     1  UNL1       -0.4755
     13 C          61.1178   88.4425   10.1076 C.3     1  UNL1        0.2054
     14 C          62.1710   87.4363    9.7493 C.3     1  UNL1        0.0473
     15 C          62.9140   85.3906    8.3306 C.3     1  UNL1        0.0001
     16 C          61.8257   86.2690    8.8727 C.3     1  UNL1        0.0038
@<TRIPOS>BOND
     1    15    16    1
     2    16    14    1
     3    14    13    1
     4    13    12    1
     5    12     1    1
     6     1     2   ar
     7     2     3   ar
     8     3     4   ar
     9     4     7    1
    10     7     8   ar
    11     8     9   ar
    12     9    10   ar
    13    10    11   ar
    14     4     5   ar
    15     5     6   ar
    16     6     1   ar
    17    11     7   ar
@<TRIPOS>MOLECULE
*****
 16 17 0 0 0
SMALL
GASTEIGER

@<TRIPOS>ATOM
      1 C          63.9706   91.0736   12.4794 C.ar    1  UNL1        0.1386
      2 C          63.6321   89.6961   12.9671 C.ar    1  UNL1        0.0370
      3 C          62.8981   88.7427   12.0715 C.ar    1  UNL1        0.0062
      4 C          62.5026   89.1667   10.6881 C.ar    1  UNL1        0.0364
      5 C          62.8411   90.5442   10.2004 C.ar    1  UNL1        0.0062
      6 C          63.5751   91.4976   11.0960 C.ar    1  UNL1        0.0370
      7 C          61.7686   88.2132    9.7924 C.ar    1  UNL1        0.1664
      8 C          60.4546   88.4722    9.1170 C.ar    1  UNL1        0.1396
      9 N          60.0937   87.2524    8.3220 N.ar    1  UNL1       -0.2026
     10 C          61.1846   86.2396    8.5062 C.ar    1  UNL1        0.2851
     11 O          62.2198   86.8334    9.4149 O.2     1  UNL1       -0.4311
     12 O          64.7046   92.0271   13.3751 O.3     1  UNL1       -0.4755
     13 C          66.0100   92.6182   12.9320 C.3     1  UNL1        0.2054
     14 C          67.2981   92.1070   13.5062 C.3     1  UNL1        0.0473
     15 C          67.4561   92.6237   16.0475 C.3     1  UNL1        0.0001
     16 C          67.3490   91.6313   14.9279 C.3     1  UNL1        0.0038
@<TRIPOS>BOND
     1    15    16    1
     2    16    14    1
     3    14    13    1
     4    13    12    1
     5    12     1    1
     6     1     2   ar
     7     2     3   ar
     8     3     4   ar
     9     4     7    1
    10     7     8   ar
    11     8     9   ar
    12     9    10   ar
    13    10    11   ar
    14     4     5   ar
    15     5     6   ar
    16     6     1   ar
    17    11     7   ar
@<TRIPOS>MOLECULE
*****
 16 17 0 0 0
SMALL
GASTEIGER

@<TRIPOS>ATOM
      1 C          63.7706   90.0562   15.7308 C.ar    1  UNL1        0.1386
      2 C          64.3557   89.3948   14.5183 C.ar    1  UNL1        0.0370
      3 C          64.3373   87.8999   14.3971 C.ar    1  UNL1        0.0062
      4 C          63.7338   87.0663   15.4883 C.ar    1  UNL1        0.0364
      5 C          63.1487   87.7277   16.7009 C.ar    1  UNL1        0.0062
      6 C          63.1672   89.2226   16.8221 C.ar    1  UNL1        0.0370
      7 C          63.7154   85.5713   15.3671 C.ar    1  UNL1        0.1664
      8 C          62.6212   84.6616   15.8416 C.ar    1  UNL1        0.1396
      9 N          63.0175   83.2516   15.5178 N.ar    1  UNL1       -0.2026
     10 C          64.3567   83.2898   14.8432 C.ar    1  UNL1        0.2851
     11 O          64.7880   84.7235   14.7501 O.2     1  UNL1       -0.4311
     12 O          63.7890   91.5512   15.8521 O.3     1  UNL1       -0.4755
     13 C          65.0090   92.2459   16.3803 C.3     1  UNL1        0.2054
     14 C          66.0847   92.6942   15.4360 C.3     1  UNL1        0.0473
     15 C          68.6220   92.3560   15.8808 C.3     1  UNL1        0.0001
     16 C          67.3335   91.8780   15.2797 C.3     1  UNL1        0.0038
@<TRIPOS>BOND
     1    15    16    1
     2    16    14    1
     3    14    13    1
     4    13    12    1
     5    12     1    1
     6     1     2   ar
     7     2     3   ar
     8     3     4   ar
     9     4     7    1
    10     7     8   ar
    11     8     9   ar
    12     9    10   ar
    13    10    11   ar
    14     4     5   ar
    15     5     6   ar
    16     6     1   ar
    17    11     7   ar
@<TRIPOS>MOLECULE
*****
 16 17 0 0 0
SMALL
GASTEIGER

@<TRIPOS>ATOM
      1 C          63.1473   84.4805   10.0371 C.ar    1  UNL1        0.1386
      2 C          62.6380   84.8117   11.4086 C.ar    1  UNL1        0.0370
      3 C          61.8679   86.0785   11.6370 C.ar    1  UNL1        0.0062
      4 C          61.6071   87.0141   10.4939 C.ar    1  UNL1        0.0364
      5 C          62.1164   86.6829    9.1225 C.ar    1  UNL1        0.0062
      6 C          62.8865   85.4161    8.8941 C.ar    1  UNL1        0.0370
      7 C          60.8371   88.2809   10.7223 C.ar    1  UNL1        0.1664
      8 C          60.7161   89.4249    9.7597 C.ar    1  UNL1        0.1396
      9 N          59.8570   90.4772   10.3959 N.ar    1  UNL1       -0.2026
     10 C          59.4471   89.9836   11.7517 C.ar    1  UNL1        0.2851
     11 O          60.0528   88.6262   11.9534 O.2     1  UNL1       -0.4311
     12 O          63.9173   83.2136    9.8087 O.3     1  UNL1       -0.4755
     13 C          63.5810   81.9798   10.5926 C.3     1  UNL1        0.2054
     14 C          64.0455   81.8433   12.0123 C.3     1  UNL1        0.0473
     15 C          62.3518   80.3003   13.2373 C.3     1  UNL1        0.0001
     16 C          63.0473   81.6232   13.1101 C.3     1  UNL1        0.0038
@<TRIPOS>BOND
     1    15    16    1
     2    16    14    1
     3    14    13    1
     4    13    12    1
     5    12     1    1
     6     1     2   ar
     7     2     3   ar
     8     3     4   ar
     9     4     7    1
    10     7     8   ar
    11     8     9   ar
    12     9    10   ar
    13    10    11   ar
    14     4     5   ar
    15     5     6   ar
    16     6     1   ar
    17    11     7   ar
@<TRIPOS>MOLECULE
*****
 16 17 0 0 0
SMALL
GASTEIGER

@<TRIPOS>ATOM
      1 C          64.2888   91.5654   12.2396 C.ar    1  UNL1        0.1386
      2 C          63.8848   90.3080   12.9507 C.ar    1  UNL1        0.0370
      3 C          63.0433   89.2854   12.2465 C.ar    1  UNL1        0.0062
      4 C          62.6057   89.5201   10.8311 C.ar    1  UNL1        0.0364
      5 C          63.0096   90.7775   10.1200 C.ar    1  UNL1        0.0062
      6 C          63.8512   91.8002   10.8243 C.ar    1  UNL1        0.0370
      7 C          61.7641   88.4975   10.1268 C.ar    1  UNL1        0.1664
      8 C          60.2676   88.5060   10.0247 C.ar    1  UNL1        0.1396
      9 N          59.8499   87.3006    9.2357 N.ar    1  UNL1       -0.2026
     10 C          61.0883   86.5470    8.8503 C.ar    1  UNL1        0.2851
     11 O          62.2713   87.2867    9.4010 O.2     1  UNL1       -0.4311
     12 O          65.1303   92.5880   12.9439 O.3     1  UNL1       -0.4755
     13 C          66.3080   93.2002   12.2452 C.3     1  UNL1        0.2054
     14 C          67.2956   92.3245   11.5325 C.3     1  UNL1        0.0473
     15 C          68.7763   92.5629    9.4110 C.3     1  UNL1        0.0001
     16 C          67.4243   92.3998   10.0399 C.3     1  UNL1        0.0038
@<TRIPOS>BOND
     1    15    16    1
     2    16    14    1
     3    14    13    1
     4    13    12    1
     5    12     1    1
     6     1     2   ar
     7     2     3   ar
     8     3     4   ar
     9     4     7    1
    10     7     8   ar
    11     8     9   ar
    12     9    10   ar
    13    10    11   ar
    14     4     5   ar
    15     5     6   ar
    16     6     1   ar
    17    11     7   ar
@<TRIPOS>MOLECULE
*****
 16 17 0 0 0
SMALL
GASTEIGER

@<TRIPOS>ATOM
      1 C          63.4230   84.1667   11.1962 C.ar    1  UNL1        0.1386
      2 C          62.3991   84.9861   11.9243 C.ar    1  UNL1        0.0370
      3 C          61.5207   85.9360   11.1653 C.ar    1  UNL1        0.0062
      4 C          61.6661   86.0665    9.6781 C.ar    1  UNL1        0.0364
      5 C          62.6900   85.2471    8.9500 C.ar    1  UNL1        0.0062
      6 C          63.5684   84.2972    9.7090 C.ar    1  UNL1        0.0370
      7 C          60.7877   87.0164    8.9191 C.ar    1  UNL1        0.1664
      8 C          59.6984   86.6356    7.9608 C.ar    1  UNL1        0.1396
      9 N          59.0818   87.8977    7.4345 N.ar    1  UNL1       -0.2026
     10 C          59.7901   89.0585    8.0675 C.ar    1  UNL1        0.2851
     11 O          60.8444   88.5138    8.9850 O.2     1  UNL1       -0.4311
     12 O          64.3014   83.2169   11.9552 O.3     1  UNL1       -0.4755
     13 C          64.2730   83.2046   13.4549 C.3     1  UNL1        0.2054
     14 C          64.9651   84.2885   14.2270 C.3     1  UNL1        0.0473
     15 C          62.8375   84.6842   15.6646 C.3     1  UNL1        0.0001
     16 C          64.1894   85.1327   15.1943 C.3     1  UNL1        0.0038
@<TRIPOS>BOND
     1    15    16    1
     2    16    14    1
     3    14    13    1
     4    13    12    1
     5    12     1    1
     6     1     2   ar
     7     2     3   ar
     8     3     4   ar
     9     4     7    1
    10     7     8   ar
    11     8     9   ar
    12     9    10   ar
    13    10    11   ar
    14     4     5   ar
    15     5     6   ar
    16     6     1   ar
    17    11     7   ar
