@<TRIPOS>MOLECULE
*****
 17 19 0 0 0
SMALL
GASTEIGER

@<TRIPOS>ATOM
      1 C          64.6746   91.6555   13.7129 C.2     1  UNL1        0.2149
      2 N          64.3391   91.7862   12.2567 N.2     1  UNL1       -0.2130
      3 C          65.3811   92.2579   11.2864 C.2     1  UNL1        0.1030
      4 C          66.7587   92.5990   11.7721 C.2     1  UNL1        0.0362
      5 C          67.0942   92.4683   13.2283 C.2     1  UNL1        0.0732
      6 N          68.3569   92.7296   13.9946 N.2     1  UNL1       -0.2476
      7 C          68.0952   92.4194   15.4387 C.2     1  UNL1        0.0948
      8 C          66.6708   91.9663   15.5648 C.2     1  UNL1        0.0093
      9 C          66.0522   91.9966   14.1986 C.3     1  UNL1        0.1400
     10 O          63.6326   91.1838   14.6832 O.3     1  UNL1       -0.4392
     11 F          63.7198   85.5197   16.6608 F       1  UNL1       -0.2042
     12 C          63.6980   86.9358   16.1665 C.ar    1  UNL1        0.1403
     13 C          63.0815   88.0142   17.0071 C.ar    1  UNL1        0.0328
     14 C          63.0597   89.4303   16.5127 C.ar    1  UNL1        0.0398
     15 C          63.6544   89.7678   15.1776 C.ar    1  UNL1        0.1470
     16 C          64.2709   88.6893   14.3369 C.ar    1  UNL1        0.0398
     17 C          64.2927   87.2733   14.8313 C.ar    1  UNL1        0.0328
@<TRIPOS>BOND
     1    11    12    1
     2    12    13   ar
     3    13    14   ar
     4    14    15   ar
     5    15    10    1
     6    10     1    1
     7     1     2    2
     8     2     3    1
     9     3     4    2
    10     4     5    1
    11     5     6    2
    12     6     7    1
    13     7     8    2
    14     8     9    1
    15    15    16   ar
    16    16    17   ar
    17    17    12   ar
    18     9     1    1
    19     9     5    1
@<TRIPOS>MOLECULE
*****
 17 19 0 0 0
SMALL
GASTEIGER

@<TRIPOS>ATOM
      1 C          65.0244   91.8920   15.0245 C.2     1  UNL1        0.2149
      2 N          65.8338   92.2620   16.2320 N.2     1  UNL1       -0.2130
      3 C          67.1402   92.9803   16.0678 C.2     1  UNL1        0.1030
      4 C          67.6375   93.3287   14.6962 C.2     1  UNL1        0.0362
      5 C          66.8281   92.9588   13.4887 C.2     1  UNL1        0.0732
      6 N          67.0605   93.1690   12.0218 N.2     1  UNL1       -0.2476
      7 C          65.8975   92.5805   11.2793 C.2     1  UNL1        0.0948
      8 C          64.9464   92.0066   12.2874 C.2     1  UNL1        0.0093
      9 C          65.5216   92.2404   13.6528 C.3     1  UNL1        0.1400
     10 O          63.7179   91.1737   15.1887 O.3     1  UNL1       -0.4392
     11 F          63.6562   85.2920   16.3730 F       1  UNL1       -0.2042
     12 C          63.6716   86.7625   16.0770 C.ar    1  UNL1        0.1403
     13 C          63.0243   87.7257   17.0272 C.ar    1  UNL1        0.0328
     14 C          63.0396   89.1962   16.7311 C.ar    1  UNL1        0.0398
     15 C          63.7025   89.7033   15.4848 C.ar    1  UNL1        0.1470
     16 C          64.3499   88.7401   14.5344 C.ar    1  UNL1        0.0398
     17 C          64.3345   87.2697   14.8305 C.ar    1  UNL1        0.0328
@<TRIPOS>BOND
     1    11    12    1
     2    12    13   ar
     3    13    14   ar
     4    14    15   ar
     5    15    10    1
     6    10     1    1
     7     1     2    2
     8     2     3    1
     9     3     4    2
    10     4     5    1
    11     5     6    2
    12     6     7    1
    13     7     8    2
    14     8     9    1
    15    15    16   ar
    16    16    17   ar
    17    17    12   ar
    18     9     1    1
    19     9     5    1
@<TRIPOS>MOLECULE
*****
 17 19 0 0 0
SMALL
GASTEIGER

@<TRIPOS>ATOM
      1 C          63.8020   83.3091   14.1688 C.2     1  UNL1        0.2149
      2 N          62.7777   82.6707   15.0594 N.2     1  UNL1       -0.2130
      3 C          61.8045   81.6798   14.4930 C.2     1  UNL1        0.1030
      4 C          61.8556   81.3271   13.0359 C.2     1  UNL1        0.0362
      5 C          62.8800   81.9654   12.1453 C.2     1  UNL1        0.0732
      6 N          63.1697   81.8160   10.6812 N.2     1  UNL1       -0.2476
      7 C          64.3220   82.7147   10.3427 C.2     1  UNL1        0.0948
      8 C          64.7444   83.4195   11.5976 C.2     1  UNL1        0.0093
      9 C          63.8531   82.9564   12.7117 C.3     1  UNL1        0.1400
     10 O          64.7752   84.3001   14.7352 O.3     1  UNL1       -0.4392
     11 F          62.8069   89.5427   16.8894 F       1  UNL1       -0.2042
     12 C          63.2990   88.2320   16.3509 C.ar    1  UNL1        0.1403
     13 C          63.0118   86.9608   17.0934 C.ar    1  UNL1        0.0328
     14 C          63.5039   85.6501   16.5549 C.ar    1  UNL1        0.0398
     15 C          64.2831   85.6107   15.2738 C.ar    1  UNL1        0.1470
     16 C          64.5703   86.8820   14.5311 C.ar    1  UNL1        0.0398
     17 C          64.0783   88.1926   15.0697 C.ar    1  UNL1        0.0328
@<TRIPOS>BOND
     1    11    12    1
     2    12    13   ar
     3    13    14   ar
     4    14    15   ar
     5    15    10    1
     6    10     1    1
     7     1     2    2
     8     2     3    1
     9     3     4    2
    10     4     5    1
    11     5     6    2
    12     6     7    1
    13     7     8    2
    14     8     9    1
    15    15    16   ar
    16    16    17   ar
    17    17    12   ar
    18     9     1    1
    19     9     5    1
@<TRIPOS>MOLECULE
*****
 17 19 0 0 0
SMALL
GASTEIGER

@<TRIPOS>ATOM
      1 C          63.6834   82.7277   11.5081 C.2     1  UNL1        0.2149
      2 N          63.1238   81.3775   11.1707 N.2     1  UNL1       -0.2130
      3 C          62.7352   80.4312   12.2676 C.2     1  UNL1        0.1030
      4 C          62.9061   80.8350   13.7021 C.2     1  UNL1        0.0362
      5 C          63.4657   82.1852   14.0396 C.2     1  UNL1        0.0732
      6 N          63.7467   82.8558   15.3515 N.2     1  UNL1       -0.2476
      7 C          64.3091   84.2166   15.0654 C.2     1  UNL1        0.0948
      8 C          64.3756   84.3870   13.5765 C.2     1  UNL1        0.0093
      9 C          63.8544   83.1315   12.9426 C.3     1  UNL1        0.1400
     10 O          64.0721   83.6740   10.4111 O.3     1  UNL1       -0.4392
     11 F          60.0098   87.4566    8.1329 F       1  UNL1       -0.2042
     12 C          61.0254   86.5109    8.7024 C.ar    1  UNL1        0.1403
     13 C          61.9388   85.7509    7.7871 C.ar    1  UNL1        0.0328
     14 C          62.9544   84.8052    8.3566 C.ar    1  UNL1        0.0398
     15 C          63.0565   84.6196    9.8415 C.ar    1  UNL1        0.1470
     16 C          62.1431   85.3796   10.7570 C.ar    1  UNL1        0.0398
     17 C          61.1275   86.3253   10.1875 C.ar    1  UNL1        0.0328
@<TRIPOS>BOND
     1    11    12    1
     2    12    13   ar
     3    13    14   ar
     4    14    15   ar
     5    15    10    1
     6    10     1    1
     7     1     2    2
     8     2     3    1
     9     3     4    2
    10     4     5    1
    11     5     6    2
    12     6     7    1
    13     7     8    2
    14     8     9    1
    15    15    16   ar
    16    16    17   ar
    17    17    12   ar
    18     9     1    1
    19     9     5    1
@<TRIPOS>MOLECULE
*****
 17 19 0 0 0
SMALL
GASTEIGER

@<TRIPOS>ATOM
      1 C          61.7337   86.3279    8.7082 C.2     1  UNL1        0.2149
      2 N          60.6715   85.7087    7.8490 N.2     1  UNL1       -0.2130
      3 C          59.3765   86.4302    7.6207 C.2     1  UNL1        0.1030
      4 C          59.1435   87.7710    8.2516 C.2     1  UNL1        0.0362
      5 C          60.2057   88.3902    9.1108 C.2     1  UNL1        0.0732
      6 N          60.2608   89.6894    9.8585 N.2     1  UNL1       -0.2476
      7 C          61.5899   89.7708   10.5489 C.2     1  UNL1        0.0948
      8 C          62.3563   88.5220   10.2279 C.2     1  UNL1        0.0093
      9 C          61.5008   87.6687    9.3391 C.3     1  UNL1        0.1400
     10 O          63.0288   85.6064    8.9365 O.3     1  UNL1       -0.4392
     11 F          63.5605   81.7754   13.5236 F       1  UNL1       -0.2042
     12 C          63.4276   82.7332   12.3768 C.ar    1  UNL1        0.1403
     13 C          64.0683   82.4174   11.0578 C.ar    1  UNL1        0.0328
     14 C          63.9354   83.3752    9.9110 C.ar    1  UNL1        0.0398
     15 C          63.1617   84.6486   10.0832 C.ar    1  UNL1        0.1470
     16 C          62.5210   84.9645   11.4023 C.ar    1  UNL1        0.0398
     17 C          62.6539   84.0068   12.5490 C.ar    1  UNL1        0.0328
@<TRIPOS>BOND
     1    11    12    1
     2    12    13   ar
     3    13    14   ar
     4    14    15   ar
     5    15    10    1
     6    10     1    1
     7     1     2    2
     8     2     3    1
     9     3     4    2
    10     4     5    1
    11     5     6    2
    12     6     7    1
    13     7     8    2
    14     8     9    1
    15    15    16   ar
    16    16    17   ar
    17    17    12   ar
    18     9     1    1
    19     9     5    1
@<TRIPOS>MOLECULE
*****
 17 19 0 0 0
SMALL
GASTEIGER

@<TRIPOS>ATOM
      1 C          64.9429   92.0388   11.9457 C.2     1  UNL1        0.2149
      2 N          64.2827   91.9854   10.5999 N.2     1  UNL1       -0.2130
      3 C          63.0897   91.1022   10.3843 C.2     1  UNL1        0.1030
      4 C          62.5569   90.2722   11.5145 C.2     1  UNL1        0.0362
      5 C          63.2171   90.3256   12.8603 C.2     1  UNL1        0.0732
      6 N          62.9184   89.6262   14.1532 N.2     1  UNL1       -0.2476
      7 C          63.9269   90.0772   15.1679 C.2     1  UNL1        0.0948
      8 C          64.8488   91.0554   14.5021 C.2     1  UNL1        0.0093
      9 C          64.4102   91.2089   13.0759 C.3     1  UNL1        0.1400
     10 O          66.1360   92.9221   12.1613 O.3     1  UNL1       -0.4392
     11 F          67.7598   96.8560    7.9319 F       1  UNL1       -0.2042
     12 C          67.3538   95.8725    8.9893 C.ar    1  UNL1        0.1403
     13 C          66.5860   96.3375   10.1910 C.ar    1  UNL1        0.0328
     14 C          66.1800   95.3541   11.2484 C.ar    1  UNL1        0.0398
     15 C          66.5419   93.9056   11.1040 C.ar    1  UNL1        0.1470
     16 C          67.3097   93.4404    9.9022 C.ar    1  UNL1        0.0398
     17 C          67.7157   94.4239    8.8449 C.ar    1  UNL1        0.0328
@<TRIPOS>BOND
     1    11    12    1
     2    12    13   ar
     3    13    14   ar
     4    14    15   ar
     5    15    10    1
     6    10     1    1
     7     1     2    2
     8     2     3    1
     9     3     4    2
    10     4     5    1
    11     5     6    2
    12     6     7    1
    13     7     8    2
    14     8     9    1
    15    15    16   ar
    16    16    17   ar
    17    17    12   ar
    18     9     1    1
    19     9     5    1
@<TRIPOS>MOLECULE
*****
 17 19 0 0 0
SMALL
GASTEIGER

@<TRIPOS>ATOM
      1 C          63.2148   84.2371   12.4854 C.2     1  UNL1        0.2149
      2 N          63.3057   85.2770   13.5626 N.2     1  UNL1       -0.2130
      3 C          63.1015   84.8905   14.9974 C.2     1  UNL1        0.1030
      4 C          62.8063   83.4639   15.3552 C.2     1  UNL1        0.0362
      5 C          62.7153   82.4240   14.2780 C.2     1  UNL1        0.0732
      6 N          62.4402   80.9503   14.3264 N.2     1  UNL1       -0.2476
      7 C          62.4744   80.4260   12.9214 C.2     1  UNL1        0.0948
      8 C          62.7707   81.5758   12.0047 C.2     1  UNL1        0.0093
      9 C          62.9196   82.8106   12.8431 C.3     1  UNL1        0.1400
     10 O          63.4191   84.6237   11.0506 O.3     1  UNL1       -0.4392
     11 F          59.3076   87.9596    8.2277 F       1  UNL1       -0.2042
     12 C          60.3355   87.1256    8.9335 C.ar    1  UNL1        0.1403
     13 C          60.4634   87.1975   10.4262 C.ar    1  UNL1        0.0328
     14 C          61.4913   86.3635   11.1320 C.ar    1  UNL1        0.0398
     15 C          62.3912   85.4577   10.3449 C.ar    1  UNL1        0.1470
     16 C          62.2633   85.3857    8.8520 C.ar    1  UNL1        0.0398
     17 C          61.2355   86.2197    8.1463 C.ar    1  UNL1        0.0328
@<TRIPOS>BOND
     1    11    12    1
     2    12    13   ar
     3    13    14   ar
     4    14    15   ar
     5    15    10    1
     6    10     1    1
     7     1     2    2
     8     2     3    1
     9     3     4    2
    10     4     5    1
    11     5     6    2
    12     6     7    1
    13     7     8    2
    14     8     9    1
    15    15    16   ar
    16    16    17   ar
    17    17    12   ar
    18     9     1    1
    19     9     5    1
@<TRIPOS>MOLECULE
*****
 17 19 0 0 0
SMALL
GASTEIGER

@<TRIPOS>ATOM
      1 C          62.9348   85.0075   12.9583 C.2     1  UNL1        0.2149
      2 N          62.3553   84.8482   14.3326 N.2     1  UNL1       -0.2130
      3 C          62.0485   83.4792   14.8630 C.2     1  UNL1        0.1030
      4 C          62.3212   82.2693   14.0192 C.2     1  UNL1        0.0362
      5 C          62.9007   82.4286   12.6449 C.2     1  UNL1        0.0732
      6 N          63.2739   81.4287   11.5909 N.2     1  UNL1       -0.2476
      7 C          63.8113   82.1799   10.4090 C.2     1  UNL1        0.0948
      8 C          63.7703   83.6440   10.7325 C.2     1  UNL1        0.0093
      9 C          63.2075   83.7977   12.1144 C.3     1  UNL1        0.1400
     10 O          63.2416   86.3766   12.4278 O.3     1  UNL1       -0.4392
     11 F          59.6737   88.8610    8.2928 F       1  UNL1       -0.2042
     12 C          60.5657   88.2398    9.3266 C.ar    1  UNL1        0.1403
     13 C          60.4199   86.7864    9.6673 C.ar    1  UNL1        0.0328
     14 C          61.3119   86.1653   10.7011 C.ar    1  UNL1        0.0398
     15 C          62.3496   86.9977   11.3940 C.ar    1  UNL1        0.1470
     16 C          62.4955   88.4512   11.0533 C.ar    1  UNL1        0.0398
     17 C          61.6035   89.0723   10.0195 C.ar    1  UNL1        0.0328
@<TRIPOS>BOND
     1    11    12    1
     2    12    13   ar
     3    13    14   ar
     4    14    15   ar
     5    15    10    1
     6    10     1    1
     7     1     2    2
     8     2     3    1
     9     3     4    2
    10     4     5    1
    11     5     6    2
    12     6     7    1
    13     7     8    2
    14     8     9    1
    15    15    16   ar
    16    16    17   ar
    17    17    12   ar
    18     9     1    1
    19     9     5    1
@<TRIPOS>MOLECULE
*****
 17 19 0 0 0
SMALL
GASTEIGER

@<TRIPOS>ATOM
      1 C          62.0686   86.2549   11.1186 C.2     1  UNL1        0.2149
      2 N          61.0534   87.2374   11.6227 N.2     1  UNL1       -0.2130
      3 C          60.0478   87.8275   10.6792 C.2     1  UNL1        0.1030
      4 C          60.0573   87.4353    9.2314 C.2     1  UNL1        0.0362
      5 C          61.0724   86.4528    8.7272 C.2     1  UNL1        0.0732
      6 N          61.3243   85.8804    7.3638 N.2     1  UNL1       -0.2476
      7 C          62.4856   84.9364    7.4648 C.2     1  UNL1        0.0948
      8 C          62.9515   84.9254    8.8906 C.2     1  UNL1        0.0093
      9 C          62.0781   85.8626    9.6708 C.3     1  UNL1        0.1400
     10 O          63.0742   85.6648   12.0622 O.3     1  UNL1       -0.4392
     11 F          62.1336   80.2362   14.4384 F       1  UNL1       -0.2042
     12 C          62.3688   81.5934   13.8444 C.ar    1  UNL1        0.1403
     13 C          62.3143   82.8131   14.7156 C.ar    1  UNL1        0.0328
     14 C          62.5495   84.1703   14.1216 C.ar    1  UNL1        0.0398
     15 C          62.8391   84.3076   12.6562 C.ar    1  UNL1        0.1470
     16 C          62.8936   83.0879   11.7849 C.ar    1  UNL1        0.0398
     17 C          62.6584   81.7307   12.3789 C.ar    1  UNL1        0.0328
@<TRIPOS>BOND
     1    11    12    1
     2    12    13   ar
     3    13    14   ar
     4    14    15   ar
     5    15    10    1
     6    10     1    1
     7     1     2    2
     8     2     3    1
     9     3     4    2
    10     4     5    1
    11     5     6    2
    12     6     7    1
    13     7     8    2
    14     8     9    1
    15    15    16   ar
    16    16    17   ar
    17    17    12   ar
    18     9     1    1
    19     9     5    1
