@<TRIPOS>MOLECULE
*****
 22 24 0 0 0
SMALL
GASTEIGER

@<TRIPOS>ATOM
      1 C          65.6401   92.6247   11.9640 C.2     1  UNL1        0.1223
      2 C          65.4945   91.9507   13.2961 C.2     1  UNL1        0.0343
      3 C          64.4086   90.9381   13.5096 C.2     1  UNL1        0.0232
      4 C          63.4684   90.5995   12.3910 C.2     1  UNL1        0.0975
      5 N          62.3109   89.6493   12.3057 N.2     1  UNL1       -0.2200
      6 C          61.7411   89.7360   10.9208 C.2     1  UNL1        0.1901
      7 N          62.5464   90.7398   10.1502 N.2     1  UNL1       -0.2236
      8 C          63.6140   91.2735   11.0589 C.2     1  UNL1        0.0863
      9 C          64.6998   92.2861   10.8454 C.3     1  UNL1        0.1112
     10 C          66.3934   94.9851   11.1826 C.3     1  UNL1        0.2520
     11 O          66.7259   93.6372   11.7505 O.2     1  UNL1       -0.4753
     12 S          60.5713   88.9559   10.3982 S.3     1  UNL1       -0.0709
     13 C          60.7913   87.8351    9.4259 C.3     1  UNL1        0.0913
     14 C          61.5937   86.6352    9.8336 C.ar    1  UNL1       -0.0109
     15 C          62.4569   85.9330    8.8277 C.ar    1  UNL1       -0.0034
     16 C          63.2592   84.7331    9.2354 C.ar    1  UNL1        0.0008
     17 C          63.1983   84.2351   10.6491 C.ar    1  UNL1        0.0140
     18 C          62.3351   84.9372   11.6550 C.ar    1  UNL1        0.0008
     19 C          61.5327   86.1373   11.2472 C.ar    1  UNL1       -0.0034
     20 C          64.0006   83.0352   11.0568 C.2     1  UNL1        0.0729
     21 O          63.9920   82.5773   12.4852 O.co2   1  UNL1       -0.5446
     22 O          64.8116   82.2931   10.0362 O.co2   1  UNL1       -0.5446
@<TRIPOS>UNITY_ATOM_ATTR
21 1
charge -1
@<TRIPOS>BOND
     1    10    11    1
     2    11     1    1
     3     1     2    2
     4     2     3    1
     5     3     4    2
     6     4     5    1
     7     5     6    2
     8     6    12    1
     9    12    13    1
    10    13    14    1
    11    14    15   ar
    12    15    16   ar
    13    16    17   ar
    14    17    20    1
    15    20    21   ar
    16    20    22   ar
    17    17    18   ar
    18    18    19   ar
    19     6     7    1
    20     7     8    2
    21     8     9    1
    22     9     1    1
    23     8     4    1
    24    19    14   ar
@<TRIPOS>MOLECULE
*****
 22 24 0 0 0
SMALL
GASTEIGER

@<TRIPOS>ATOM
      1 C          63.7833   82.9178   11.6287 C.2     1  UNL1        0.1223
      2 C          64.0542   83.0032   10.1559 C.2     1  UNL1        0.0343
      3 C          63.5197   84.1573    9.3606 C.2     1  UNL1        0.0232
      4 C          62.7142   85.2259   10.0382 C.2     1  UNL1        0.0975
      5 N          62.0621   86.4728    9.5185 N.2     1  UNL1       -0.2200
      6 C          61.3882   87.1580   10.6701 C.2     1  UNL1        0.1901
      7 N          61.6237   86.3347   11.9016 N.2     1  UNL1       -0.2236
      8 C          62.4433   85.1406   11.5110 C.2     1  UNL1        0.0863
      9 C          62.9778   83.9865   12.3063 C.3     1  UNL1        0.1112
     10 C          63.4632   81.1157   13.4726 C.3     1  UNL1        0.2520
     11 O          64.3178   81.7638   12.4240 O.2     1  UNL1       -0.4753
     12 S          60.6145   88.4414   10.6021 S.3     1  UNL1       -0.0709
     13 C          61.2524   89.6722   10.0293 C.3     1  UNL1        0.0913
     14 C          62.3751   90.3453   10.7617 C.ar    1  UNL1       -0.0109
     15 C          63.2685   91.3109   10.0410 C.ar    1  UNL1       -0.0034
     16 C          64.3912   91.9839   10.7734 C.ar    1  UNL1        0.0008
     17 C          64.6206   91.6913   12.2266 C.ar    1  UNL1        0.0140
     18 C          63.7273   90.7257   12.9474 C.ar    1  UNL1        0.0008
     19 C          62.6045   90.0527   12.2149 C.ar    1  UNL1       -0.0034
     20 C          65.7433   92.3643   12.9591 C.2     1  UNL1        0.0729
     21 O          65.5742   92.7518   14.3982 O.co2   1  UNL1       -0.5446
     22 O          67.0353   92.6499   12.2523 O.co2   1  UNL1       -0.5446
@<TRIPOS>UNITY_ATOM_ATTR
21 1
charge -1
@<TRIPOS>BOND
     1    10    11    1
     2    11     1    1
     3     1     2    2
     4     2     3    1
     5     3     4    2
     6     4     5    1
     7     5     6    2
     8     6    12    1
     9    12    13    1
    10    13    14    1
    11    14    15   ar
    12    15    16   ar
    13    16    17   ar
    14    17    20    1
    15    20    21   ar
    16    20    22   ar
    17    17    18   ar
    18    18    19   ar
    19     6     7    1
    20     7     8    2
    21     8     9    1
    22     9     1    1
    23     8     4    1
    24    19    14   ar
@<TRIPOS>MOLECULE
*****
 22 24 0 0 0
SMALL
GASTEIGER

@<TRIPOS>ATOM
      1 C          65.6384   92.0054   13.3863 C.2     1  UNL1        0.1223
      2 C          65.9159   92.6533   12.0623 C.2     1  UNL1        0.0343
      3 C          65.0405   92.3527   10.8819 C.2     1  UNL1        0.0232
      4 C          63.8875   91.4041   11.0257 C.2     1  UNL1        0.0975
      5 N          62.8594   90.9183   10.0474 N.2     1  UNL1       -0.2200
      6 C          61.9465   89.9701   10.7668 C.2     1  UNL1        0.1901
      7 N          62.4103   89.8699   12.1898 N.2     1  UNL1       -0.2236
      8 C          63.6099   90.7562   12.3497 C.2     1  UNL1        0.0863
      9 C          64.4854   91.0568   13.5300 C.3     1  UNL1        0.1112
     10 C          65.9107   92.4375   15.9337 C.3     1  UNL1        0.2520
     11 O          66.5139   92.3061   14.5666 O.2     1  UNL1       -0.4753
     12 S          60.7753   89.2488   10.1683 S.3     1  UNL1       -0.0709
     13 C          61.0014   88.1145    9.2132 C.3     1  UNL1        0.0913
     14 C          61.6667   86.8564    9.6870 C.ar    1  UNL1       -0.0109
     15 C          61.5305   86.4293   11.1184 C.ar    1  UNL1       -0.0034
     16 C          62.1958   85.1712   11.5922 C.ar    1  UNL1        0.0008
     17 C          62.9973   84.3401   10.6345 C.ar    1  UNL1        0.0140
     18 C          63.1335   84.7673    9.2031 C.ar    1  UNL1        0.0008
     19 C          62.4681   86.0255    8.7293 C.ar    1  UNL1       -0.0034
     20 C          63.6626   83.0820   11.1083 C.2     1  UNL1        0.0729
     21 O          63.0443   82.2767   12.2124 O.co2   1  UNL1       -0.5446
     22 O          64.9462   82.6292   10.4780 O.co2   1  UNL1       -0.5446
@<TRIPOS>UNITY_ATOM_ATTR
21 1
charge -1
@<TRIPOS>BOND
     1    10    11    1
     2    11     1    1
     3     1     2    2
     4     2     3    1
     5     3     4    2
     6     4     5    1
     7     5     6    2
     8     6    12    1
     9    12    13    1
    10    13    14    1
    11    14    15   ar
    12    15    16   ar
    13    16    17   ar
    14    17    20    1
    15    20    21   ar
    16    20    22   ar
    17    17    18   ar
    18    18    19   ar
    19     6     7    1
    20     7     8    2
    21     8     9    1
    22     9     1    1
    23     8     4    1
    24    19    14   ar
@<TRIPOS>MOLECULE
*****
 22 24 0 0 0
SMALL
GASTEIGER

@<TRIPOS>ATOM
      1 C          63.4596   82.4504   13.2690 C.2     1  UNL1        0.1223
      2 C          64.1045   83.3272   14.3012 C.2     1  UNL1        0.0343
      3 C          64.0471   84.8194   14.1595 C.2     1  UNL1        0.0232
      4 C          63.3448   85.4348   12.9857 C.2     1  UNL1        0.0975
      5 N          63.1269   86.8630   12.5823 N.2     1  UNL1       -0.2200
      6 C          62.3472   86.8690   11.3008 C.2     1  UNL1        0.1901
      7 N          62.0833   85.4445   10.9122 N.2     1  UNL1       -0.2236
      8 C          62.6998   84.5581   11.9536 C.2     1  UNL1        0.0863
      9 C          62.7572   83.0659   12.0952 C.3     1  UNL1        0.1112
     10 C          62.2500   80.1554   13.4086 C.3     1  UNL1        0.2520
     11 O          63.5170   80.9582   13.4107 O.2     1  UNL1       -0.4753
     12 S          61.9085   88.0859   10.5413 S.3     1  UNL1       -0.0709
     13 C          61.6740   89.3781   11.2660 C.3     1  UNL1        0.0913
     14 C          62.8197   90.3104   11.5268 C.ar    1  UNL1       -0.0109
     15 C          63.4446   90.3680   12.8892 C.ar    1  UNL1       -0.0034
     16 C          64.5903   91.3003   13.1500 C.ar    1  UNL1        0.0008
     17 C          65.1111   92.1752   12.0483 C.ar    1  UNL1        0.0140
     18 C          64.4861   92.1177   10.6860 C.ar    1  UNL1        0.0008
     19 C          63.3404   91.1852   10.4252 C.ar    1  UNL1       -0.0034
     20 C          66.2568   93.1076   12.3091 C.2     1  UNL1        0.0729
     21 O          66.1199   94.5688   11.9996 O.co2   1  UNL1       -0.5446
     22 O          67.5394   92.5786   12.8795 O.co2   1  UNL1       -0.5446
@<TRIPOS>UNITY_ATOM_ATTR
21 1
charge -1
@<TRIPOS>BOND
     1    10    11    1
     2    11     1    1
     3     1     2    2
     4     2     3    1
     5     3     4    2
     6     4     5    1
     7     5     6    2
     8     6    12    1
     9    12    13    1
    10    13    14    1
    11    14    15   ar
    12    15    16   ar
    13    16    17   ar
    14    17    20    1
    15    20    21   ar
    16    20    22   ar
    17    17    18   ar
    18    18    19   ar
    19     6     7    1
    20     7     8    2
    21     8     9    1
    22     9     1    1
    23     8     4    1
    24    19    14   ar
@<TRIPOS>MOLECULE
*****
 22 24 0 0 0
SMALL
GASTEIGER

@<TRIPOS>ATOM
      1 C          66.7064   95.6774    8.9538 C.2     1  UNL1        0.1223
      2 C          67.5963   94.5953    8.4180 C.2     1  UNL1        0.0343
      3 C          67.9458   93.4171    9.2780 C.2     1  UNL1        0.0232
      4 C          67.4055   93.3210   10.6740 C.2     1  UNL1        0.0975
      5 N          67.5756   92.2869   11.7472 N.2     1  UNL1       -0.2200
      6 C          66.7909   92.7299   12.9464 C.2     1  UNL1        0.1901
      7 N          66.1358   94.0378   12.6143 N.2     1  UNL1       -0.2236
      8 C          66.5156   94.4031   11.2099 C.2     1  UNL1        0.0863
      9 C          66.1661   95.5813   10.3498 C.3     1  UNL1        0.1112
     10 C          65.4040   96.6907    6.9471 C.3     1  UNL1        0.2520
     11 O          66.3569   96.8556    8.0938 O.2     1  UNL1       -0.4753
     12 S          66.6808   91.9942   14.2489 S.3     1  UNL1       -0.0709
     13 C          65.3496   91.4773   14.7081 C.3     1  UNL1        0.0913
     14 C          64.5418   90.5855   13.8125 C.ar    1  UNL1       -0.0109
     15 C          64.3906   89.1300   14.1420 C.ar    1  UNL1       -0.0034
     16 C          63.5828   88.2382   13.2464 C.ar    1  UNL1        0.0008
     17 C          62.9262   88.8020   12.0212 C.ar    1  UNL1        0.0140
     18 C          63.0773   90.2575   11.6917 C.ar    1  UNL1        0.0008
     19 C          63.8852   91.1493   12.5874 C.ar    1  UNL1       -0.0034
     20 C          62.1184   87.9102   11.1256 C.2     1  UNL1        0.0729
     21 O          61.3260   86.7789   11.7107 O.co2   1  UNL1       -0.5446
     22 O          62.1029   88.1497    9.6449 O.co2   1  UNL1       -0.5446
@<TRIPOS>UNITY_ATOM_ATTR
21 1
charge -1
@<TRIPOS>BOND
     1    10    11    1
     2    11     1    1
     3     1     2    2
     4     2     3    1
     5     3     4    2
     6     4     5    1
     7     5     6    2
     8     6    12    1
     9    12    13    1
    10    13    14    1
    11    14    15   ar
    12    15    16   ar
    13    16    17   ar
    14    17    20    1
    15    20    21   ar
    16    20    22   ar
    17    17    18   ar
    18    18    19   ar
    19     6     7    1
    20     7     8    2
    21     8     9    1
    22     9     1    1
    23     8     4    1
    24    19    14   ar
@<TRIPOS>MOLECULE
*****
 22 24 0 0 0
SMALL
GASTEIGER

@<TRIPOS>ATOM
      1 C          60.4564   85.7390    7.4818 C.2     1  UNL1        0.1223
      2 C          59.2516   86.6308    7.4272 C.2     1  UNL1        0.0343
      3 C          59.1785   87.8471    8.3019 C.2     1  UNL1        0.0232
      4 C          60.3102   88.1716    9.2314 C.2     1  UNL1        0.0975
      5 N          60.5192   89.2932   10.2052 N.2     1  UNL1       -0.2200
      6 C          61.8532   89.0946   10.8617 C.2     1  UNL1        0.1901
      7 N          62.4687   87.8502   10.2937 N.2     1  UNL1       -0.2236
      8 C          61.5150   87.2798    9.2860 C.2     1  UNL1        0.0863
      9 C          61.5881   86.0634    8.4113 C.3     1  UNL1        0.1112
     10 C          61.7504   84.2710    5.7729 C.3     1  UNL1        0.2520
     11 O          60.5295   84.5226    6.6071 O.2     1  UNL1       -0.4753
     12 S          62.4644   89.9842   11.9034 S.3     1  UNL1       -0.0709
     13 C          63.3544   91.1194   11.4918 C.3     1  UNL1        0.0913
     14 C          64.4680   91.5641   12.3929 C.ar    1  UNL1       -0.0109
     15 C          64.6818   90.8842   13.7127 C.ar    1  UNL1       -0.0034
     16 C          65.7954   91.3290   14.6138 C.ar    1  UNL1        0.0008
     17 C          66.6952   92.4537   14.1951 C.ar    1  UNL1        0.0140
     18 C          66.4814   93.1336   12.8752 C.ar    1  UNL1        0.0008
     19 C          65.3678   92.6888   11.9741 C.ar    1  UNL1       -0.0034
     20 C          67.8088   92.8985   15.0962 C.2     1  UNL1        0.0729
     21 O          69.2323   92.8014   14.6334 O.co2   1  UNL1       -0.5446
     22 O          67.4989   93.4404   16.4601 O.co2   1  UNL1       -0.5446
@<TRIPOS>UNITY_ATOM_ATTR
21 1
charge -1
@<TRIPOS>BOND
     1    10    11    1
     2    11     1    1
     3     1     2    2
     4     2     3    1
     5     3     4    2
     6     4     5    1
     7     5     6    2
     8     6    12    1
     9    12    13    1
    10    13    14    1
    11    14    15   ar
    12    15    16   ar
    13    16    17   ar
    14    17    20    1
    15    20    21   ar
    16    20    22   ar
    17    17    18   ar
    18    18    19   ar
    19     6     7    1
    20     7     8    2
    21     8     9    1
    22     9     1    1
    23     8     4    1
    24    19    14   ar
@<TRIPOS>MOLECULE
*****
 22 24 0 0 0
SMALL
GASTEIGER

@<TRIPOS>ATOM
      1 C          63.2273   83.3336   12.6669 C.2     1  UNL1        0.1223
      2 C          63.9331   82.9782   13.9418 C.2     1  UNL1        0.0343
      3 C          64.4390   84.0626   14.8465 C.2     1  UNL1        0.0232
      4 C          64.2389   85.5023   14.4762 C.2     1  UNL1        0.0975
      5 N          64.6249   86.7784   15.1636 N.2     1  UNL1       -0.2200
      6 C          64.1576   87.9225   14.3135 C.2     1  UNL1        0.1901
      7 N          63.4828   87.3535   13.1007 N.2     1  UNL1       -0.2236
      8 C          63.5331   85.8577   13.2013 C.2     1  UNL1        0.0863
      9 C          63.0273   84.7734   12.2967 C.3     1  UNL1        0.1112
     10 C          62.7210   80.8235   12.2280 C.3     1  UNL1        0.2520
     11 O          62.7215   82.2493   11.7623 O.2     1  UNL1       -0.4753
     12 S          64.3342   89.3798   14.6221 S.3     1  UNL1       -0.0709
     13 C          63.6548   90.4137   13.7738 C.3     1  UNL1        0.0913
     14 C          64.4677   91.3024   12.8797 C.ar    1  UNL1       -0.0109
     15 C          64.0660   91.4946   11.4473 C.ar    1  UNL1       -0.0034
     16 C          64.8789   92.3832   10.5532 C.ar    1  UNL1        0.0008
     17 C          66.0936   93.0797   11.0914 C.ar    1  UNL1        0.0140
     18 C          66.4953   92.8874   12.5237 C.ar    1  UNL1        0.0008
     19 C          65.6823   91.9987   13.4179 C.ar    1  UNL1       -0.0034
     20 C          66.9065   93.9683   10.1973 C.2     1  UNL1        0.0729
     21 O          66.2970   95.2117    9.6208 O.co2   1  UNL1       -0.5446
     22 O          68.3289   93.6135    9.8796 O.co2   1  UNL1       -0.5446
@<TRIPOS>UNITY_ATOM_ATTR
21 1
charge -1
@<TRIPOS>BOND
     1    10    11    1
     2    11     1    1
     3     1     2    2
     4     2     3    1
     5     3     4    2
     6     4     5    1
     7     5     6    2
     8     6    12    1
     9    12    13    1
    10    13    14    1
    11    14    15   ar
    12    15    16   ar
    13    16    17   ar
    14    17    20    1
    15    20    21   ar
    16    20    22   ar
    17    17    18   ar
    18    18    19   ar
    19     6     7    1
    20     7     8    2
    21     8     9    1
    22     9     1    1
    23     8     4    1
    24    19    14   ar
@<TRIPOS>MOLECULE
*****
 22 24 0 0 0
SMALL
GASTEIGER

@<TRIPOS>ATOM
      1 C          60.9131   88.2613    9.2708 C.2     1  UNL1        0.1223
      2 C          61.2654   89.6899    9.5625 C.2     1  UNL1        0.0343
      3 C          62.1135   90.0251   10.7535 C.2     1  UNL1        0.0232
      4 C          62.6093   88.9317   11.6528 C.2     1  UNL1        0.0975
      5 N          63.4560   88.9568   12.8906 N.2     1  UNL1       -0.2200
      6 C          63.6271   87.5438   13.3640 C.2     1  UNL1        0.1901
      7 N          62.8861   86.6453   12.4187 N.2     1  UNL1       -0.2236
      8 C          62.2570   87.5032   11.3611 C.2     1  UNL1        0.0863
      9 C          61.4090   87.1680   10.1701 C.3     1  UNL1        0.1112
     10 C          59.3462   86.6111    8.0172 C.3     1  UNL1        0.2520
     11 O          60.0651   87.9261    8.0799 O.2     1  UNL1       -0.4753
     12 S          64.4031   87.1061   14.5709 S.3     1  UNL1       -0.0709
     13 C          65.0454   85.7509   14.5985 C.3     1  UNL1        0.0913
     14 C          64.2123   84.5215   14.3875 C.ar    1  UNL1       -0.0109
     15 C          64.5590   83.5598   13.2898 C.ar    1  UNL1       -0.0034
     16 C          63.7259   82.3305   13.0788 C.ar    1  UNL1        0.0008
     17 C          62.5460   82.0628   13.9656 C.ar    1  UNL1        0.0140
     18 C          62.1993   83.0245   15.0633 C.ar    1  UNL1        0.0008
     19 C          63.0325   84.2539   15.2742 C.ar    1  UNL1       -0.0034
     20 C          61.7129   80.8334   13.7546 C.2     1  UNL1        0.0729
     21 O          60.3285   80.7583   14.3272 O.co2   1  UNL1       -0.5446
     22 O          62.2641   79.6792   12.9710 O.co2   1  UNL1       -0.5446
@<TRIPOS>UNITY_ATOM_ATTR
21 1
charge -1
@<TRIPOS>BOND
     1    10    11    1
     2    11     1    1
     3     1     2    2
     4     2     3    1
     5     3     4    2
     6     4     5    1
     7     5     6    2
     8     6    12    1
     9    12    13    1
    10    13    14    1
    11    14    15   ar
    12    15    16   ar
    13    16    17   ar
    14    17    20    1
    15    20    21   ar
    16    20    22   ar
    17    17    18   ar
    18    18    19   ar
    19     6     7    1
    20     7     8    2
    21     8     9    1
    22     9     1    1
    23     8     4    1
    24    19    14   ar
@<TRIPOS>MOLECULE
*****
 22 24 0 0 0
SMALL
GASTEIGER

@<TRIPOS>ATOM
      1 C          67.0726   93.9791    9.4857 C.2     1  UNL1        0.1223
      2 C          68.0832   92.8723    9.5451 C.2     1  UNL1        0.0343
      3 C          68.1529   91.9843   10.7520 C.2     1  UNL1        0.0232
      4 C          67.2121   92.2031   11.8995 C.2     1  UNL1        0.0975
      5 N          67.0460   91.4937   13.2107 N.2     1  UNL1       -0.2200
      6 C          65.9327   92.1621   13.9617 C.2     1  UNL1        0.1901
      7 N          65.4108   93.2846   13.1146 N.2     1  UNL1       -0.2236
      8 C          66.2015   93.3100   11.8402 C.2     1  UNL1        0.0863
      9 C          66.1318   94.1980   10.6332 C.3     1  UNL1        0.1112
     10 C          67.6005   96.2422    8.3239 C.3     1  UNL1        0.2520
     11 O          67.0029   94.8671    8.2788 O.2     1  UNL1       -0.4753
     12 S          65.4298   91.7758   15.3210 S.3     1  UNL1       -0.0709
     13 C          64.0660   91.1697   15.4718 C.3     1  UNL1        0.0913
     14 C          63.9122   89.6798   15.5530 C.ar    1  UNL1       -0.0109
     15 C          64.4593   88.8087   14.4613 C.ar    1  UNL1       -0.0034
     16 C          64.3055   87.3189   14.5425 C.ar    1  UNL1        0.0008
     17 C          63.6045   86.7000   15.7155 C.ar    1  UNL1        0.0140
     18 C          63.0575   87.5711   16.8072 C.ar    1  UNL1        0.0008
     19 C          63.2113   89.0611   16.7259 C.ar    1  UNL1       -0.0034
     20 C          63.4507   85.2102   15.7967 C.2     1  UNL1        0.0729
     21 O          64.4692   84.3150   15.1554 O.co2   1  UNL1       -0.5446
     22 O          62.2785   84.6155   16.5193 O.co2   1  UNL1       -0.5446
@<TRIPOS>UNITY_ATOM_ATTR
21 1
charge -1
@<TRIPOS>BOND
     1    10    11    1
     2    11     1    1
     3     1     2    2
     4     2     3    1
     5     3     4    2
     6     4     5    1
     7     5     6    2
     8     6    12    1
     9    12    13    1
    10    13    14    1
    11    14    15   ar
    12    15    16   ar
    13    16    17   ar
    14    17    20    1
    15    20    21   ar
    16    20    22   ar
    17    17    18   ar
    18    18    19   ar
    19     6     7    1
    20     7     8    2
    21     8     9    1
    22     9     1    1
    23     8     4    1
    24    19    14   ar
