@<TRIPOS>MOLECULE
*****
 26 29 0 0 0
SMALL
GASTEIGER

@<TRIPOS>ATOM
      1 C          65.0889   91.3061   13.7739 C.2     1  UNL1        0.0919
      2 C          64.9040   90.0113   14.5083 C.2     1  UNL1        0.0183
      3 C          64.0054   88.9509   13.9444 C.2     1  UNL1        0.0511
      4 C          63.2917   89.1852   12.6461 C.2     1  UNL1        0.2322
      5 N          62.3492   88.3316   11.8505 N.2     1  UNL1       -0.0295
      6 C          61.9517   89.0987   10.6243 C.2     1  UNL1        0.3932
      7 N          62.6484   90.4265   10.6621 N.2     1  UNL1       -0.0333
      8 C          63.4766   90.4800   11.9117 C.2     1  UNL1        0.2192
      9 C          64.3752   91.5404   12.4756 C.3     1  UNL1        0.1226
     10 C          61.0207   88.6218    9.5491 C.ar    1  UNL1        0.1694
     11 C          60.5661   89.5672    8.4770 C.ar    1  UNL1        0.0270
     12 C          59.6353   89.0903    7.4018 C.ar    1  UNL1        0.0033
     13 C          59.1590   87.6679    7.3988 C.ar    1  UNL1        0.0207
     14 C          59.6136   86.7225    8.4710 C.ar    1  UNL1        0.0991
     15 N          60.5444   87.1994    9.5461 N.ar    1  UNL1       -0.2361
     16 C          59.1807   90.0357    6.3297 C.ar    1  UNL1        0.0001
     17 C          60.1904   90.8052    5.5308 C.ar    1  UNL1        0.0000
     18 C          59.7358   91.7506    4.4586 C.ar    1  UNL1        0.0000
     19 C          58.2715   91.9266    4.1854 C.ar    1  UNL1        0.0000
     20 C          57.2618   91.1571    4.9843 C.ar    1  UNL1        0.0000
     21 C          57.7163   90.2117    6.0565 C.ar    1  UNL1        0.0000
     22 S          65.9876   92.3665   14.3378 S.O2    1  UNL1        0.0054
     23 O          66.7415   92.4167   13.0420 O.2     1  UNL1       -0.1689
     24 O          65.2337   92.3163   15.6336 O.2     1  UNL1       -0.1689
     25 C          67.8769   93.0787   15.9728 C.3     1  UNL1        0.0276
     26 C          66.8862   93.4269   14.9017 C.3     1  UNL1        0.1556
@<TRIPOS>BOND
     1    25    26    1
     2    26    22    1
     3    22    23    2
     4    22    24    2
     5    22     1    1
     6     1     2    2
     7     2     3    1
     8     3     4    2
     9     4     5    1
    10     5     6    2
    11     6    10    1
    12    10    11   ar
    13    11    12   ar
    14    12    16    1
    15    16    17   ar
    16    17    18   ar
    17    18    19   ar
    18    19    20   ar
    19    20    21   ar
    20    12    13   ar
    21    13    14   ar
    22    14    15   ar
    23     6     7    1
    24     7     8    2
    25     8     9    1
    26     9     1    1
    27     8     4    1
    28    15    10   ar
    29    21    16   ar
@<TRIPOS>MOLECULE
*****
 26 29 0 0 0
SMALL
GASTEIGER

@<TRIPOS>ATOM
      1 C          61.1099   86.7834    8.5829 C.2     1  UNL1        0.0919
      2 C          60.2492   87.9996    8.4105 C.2     1  UNL1        0.0183
      3 C          60.3174   89.1147    9.4115 C.2     1  UNL1        0.0511
      4 C          61.2463   89.0135   10.5848 C.2     1  UNL1        0.2322
      5 N          61.5279   89.9460   11.7255 N.2     1  UNL1       -0.0295
      6 C          62.5627   89.3061   12.6028 C.2     1  UNL1        0.3932
      7 N          62.9206   87.9780   12.0044 N.2     1  UNL1       -0.0333
      8 C          62.1070   87.7972   10.7572 C.2     1  UNL1        0.2192
      9 C          62.0388   86.6821    9.7562 C.3     1  UNL1        0.1226
     10 C          63.1384   89.8914   13.8582 C.ar    1  UNL1        0.1694
     11 C          64.4829   90.5558   13.8280 C.ar    1  UNL1        0.0270
     12 C          65.0587   91.1411   15.0833 C.ar    1  UNL1        0.0033
     13 C          64.2899   91.0622   16.3688 C.ar    1  UNL1        0.0207
     14 C          62.9453   90.3979   16.3991 C.ar    1  UNL1        0.0991
     15 N          62.3696   89.8125   15.1438 N.ar    1  UNL1       -0.2361
     16 C          66.4032   91.8054   15.0530 C.ar    1  UNL1        0.0001
     17 C          66.7995   92.7468   16.1515 C.ar    1  UNL1        0.0000
     18 C          68.1441   93.4111   16.1213 C.ar    1  UNL1        0.0000
     19 C          69.0923   93.1340   14.9926 C.ar    1  UNL1        0.0000
     20 C          68.6960   92.1927   13.8941 C.ar    1  UNL1        0.0000
     21 C          67.3514   91.5284   13.9243 C.ar    1  UNL1        0.0000
     22 S          61.0417   85.6683    7.5819 S.O2    1  UNL1        0.0054
     23 O          59.5990   85.9880    7.3240 O.2     1  UNL1       -0.1689
     24 O          62.4843   85.3485    7.8398 O.2     1  UNL1       -0.1689
     25 C          62.0800   84.3707    5.5849 C.3     1  UNL1        0.0276
     26 C          60.9735   84.5532    6.5809 C.3     1  UNL1        0.1556
@<TRIPOS>BOND
     1    25    26    1
     2    26    22    1
     3    22    23    2
     4    22    24    2
     5    22     1    1
     6     1     2    2
     7     2     3    1
     8     3     4    2
     9     4     5    1
    10     5     6    2
    11     6    10    1
    12    10    11   ar
    13    11    12   ar
    14    12    16    1
    15    16    17   ar
    16    17    18   ar
    17    18    19   ar
    18    19    20   ar
    19    20    21   ar
    20    12    13   ar
    21    13    14   ar
    22    14    15   ar
    23     6     7    1
    24     7     8    2
    25     8     9    1
    26     9     1    1
    27     8     4    1
    28    15    10   ar
    29    21    16   ar
@<TRIPOS>MOLECULE
*****
 26 29 0 0 0
SMALL
GASTEIGER

@<TRIPOS>ATOM
      1 C          65.9411   93.4532   12.1442 C.2     1  UNL1        0.0919
      2 C          66.5079   93.8582   13.4726 C.2     1  UNL1        0.0183
      3 C          66.3164   92.9756   14.6703 C.2     1  UNL1        0.0511
      4 C          65.5581   91.6880   14.5395 C.2     1  UNL1        0.2322
      5 N          65.2117   90.6215   15.5358 N.2     1  UNL1       -0.0295
      6 C          64.4308   89.5574   14.8231 C.2     1  UNL1        0.3932
      7 N          64.2946   89.9663   13.3864 N.2     1  UNL1       -0.0333
      8 C          64.9913   91.2831   13.2111 C.2     1  UNL1        0.2192
      9 C          65.1828   92.1657   12.0135 C.3     1  UNL1        0.1226
     10 C          63.8824   88.3044   15.4391 C.ar    1  UNL1        0.1694
     11 C          63.9708   87.0034   14.6977 C.ar    1  UNL1        0.0270
     12 C          63.4224   85.7505   15.3137 C.ar    1  UNL1        0.0033
     13 C          62.7858   85.7985   16.6709 C.ar    1  UNL1        0.0207
     14 C          62.6974   87.0995   17.4123 C.ar    1  UNL1        0.0991
     15 N          63.2458   88.3525   16.7964 N.ar    1  UNL1       -0.2361
     16 C          63.5108   84.4495   14.5723 C.ar    1  UNL1        0.0001
     17 C          64.5139   84.2811   13.4699 C.ar    1  UNL1        0.0000
     18 C          64.6022   82.9801   12.7285 C.ar    1  UNL1        0.0000
     19 C          63.6874   81.8475   13.0895 C.ar    1  UNL1        0.0000
     20 C          62.6843   82.0160   14.1919 C.ar    1  UNL1        0.0000
     21 C          62.5960   83.3169   14.9333 C.ar    1  UNL1        0.0000
     22 S          66.1326   94.3359   10.9466 S.O2    1  UNL1        0.0054
     23 O          66.1288   95.5437   11.8361 O.2     1  UNL1       -0.1689
     24 O          66.1364   93.1281   10.0571 O.2     1  UNL1       -0.1689
     25 C          67.6328   95.2146    9.0160 C.3     1  UNL1        0.0276
     26 C          66.3241   95.2185    9.7490 C.3     1  UNL1        0.1556
@<TRIPOS>BOND
     1    25    26    1
     2    26    22    1
     3    22    23    2
     4    22    24    2
     5    22     1    1
     6     1     2    2
     7     2     3    1
     8     3     4    2
     9     4     5    1
    10     5     6    2
    11     6    10    1
    12    10    11   ar
    13    11    12   ar
    14    12    16    1
    15    16    17   ar
    16    17    18   ar
    17    18    19   ar
    18    19    20   ar
    19    20    21   ar
    20    12    13   ar
    21    13    14   ar
    22    14    15   ar
    23     6     7    1
    24     7     8    2
    25     8     9    1
    26     9     1    1
    27     8     4    1
    28    15    10   ar
    29    21    16   ar
@<TRIPOS>MOLECULE
*****
 26 29 0 0 0
SMALL
GASTEIGER

@<TRIPOS>ATOM
      1 C          63.4503   82.1584   12.2830 C.2     1  UNL1        0.0919
      2 C          63.7523   81.6790   13.6718 C.2     1  UNL1        0.0183
      3 C          63.9419   82.6693   14.7824 C.2     1  UNL1        0.0511
      4 C          63.8295   84.1389   14.5042 C.2     1  UNL1        0.2322
      5 N          63.9652   85.3415   15.3903 N.2     1  UNL1       -0.0295
      6 C          63.7471   86.5642   14.5492 C.2     1  UNL1        0.3932
      7 N          63.4766   86.1172   13.1431 N.2     1  UNL1       -0.0333
      8 C          63.5275   84.6183   13.1153 C.2     1  UNL1        0.2192
      9 C          63.3379   83.6280   12.0047 C.3     1  UNL1        0.1226
     10 C          63.7917   87.9845   15.0297 C.ar    1  UNL1        0.1694
     11 C          64.4036   89.0489   14.1680 C.ar    1  UNL1        0.0270
     12 C          64.4482   90.4691   14.6485 C.ar    1  UNL1        0.0033
     13 C          63.8809   90.8249   15.9907 C.ar    1  UNL1        0.0207
     14 C          63.2690   89.7604   16.8524 C.ar    1  UNL1        0.0991
     15 N          63.2244   88.3402   16.3719 N.ar    1  UNL1       -0.2361
     16 C          65.0601   91.5336   13.7868 C.ar    1  UNL1        0.0001
     17 C          66.0991   92.4537   14.3557 C.ar    1  UNL1        0.0000
     18 C          66.7110   93.5182   13.4940 C.ar    1  UNL1        0.0000
     19 C          66.2838   93.6625   12.0634 C.ar    1  UNL1        0.0000
     20 C          65.2448   92.7424   11.4945 C.ar    1  UNL1        0.0000
     21 C          64.6329   91.6779   12.3563 C.ar    1  UNL1        0.0000
     22 S          63.2607   81.1681   11.1724 S.O2    1  UNL1        0.0054
     23 O          62.7437   80.1621   12.1577 O.2     1  UNL1       -0.1689
     24 O          63.7777   82.1741   10.1871 O.2     1  UNL1       -0.1689
     25 C          62.7110   78.7564   10.3777 C.3     1  UNL1        0.0276
     26 C          63.0711   80.1778   10.0618 C.3     1  UNL1        0.1556
@<TRIPOS>BOND
     1    25    26    1
     2    26    22    1
     3    22    23    2
     4    22    24    2
     5    22     1    1
     6     1     2    2
     7     2     3    1
     8     3     4    2
     9     4     5    1
    10     5     6    2
    11     6    10    1
    12    10    11   ar
    13    11    12   ar
    14    12    16    1
    15    16    17   ar
    16    17    18   ar
    17    18    19   ar
    18    19    20   ar
    19    20    21   ar
    20    12    13   ar
    21    13    14   ar
    22    14    15   ar
    23     6     7    1
    24     7     8    2
    25     8     9    1
    26     9     1    1
    27     8     4    1
    28    15    10   ar
    29    21    16   ar
@<TRIPOS>MOLECULE
*****
 26 29 0 0 0
SMALL
GASTEIGER

@<TRIPOS>ATOM
      1 C          62.7589   84.2628   13.3953 C.2     1  UNL1        0.0919
      2 C          62.1682   84.7514   12.1060 C.2     1  UNL1        0.0183
      3 C          62.3490   86.1819   11.6927 C.2     1  UNL1        0.0511
      4 C          63.1205   87.1239   12.5687 C.2     1  UNL1        0.2322
      5 N          63.4609   88.5776   12.4244 N.2     1  UNL1       -0.0295
      6 C          64.2620   88.9875   13.6245 C.2     1  UNL1        0.3932
      7 N          64.4167   87.7871   14.5106 N.2     1  UNL1       -0.0333
      8 C          63.7112   86.6353   13.8580 C.2     1  UNL1        0.2192
      9 C          63.5304   85.2048   14.2713 C.3     1  UNL1        0.1226
     10 C          64.8118   90.3573   13.8917 C.ar    1  UNL1        0.1694
     11 C          65.2895   91.2089   12.7530 C.ar    1  UNL1        0.0270
     12 C          65.8393   92.5787   13.0201 C.ar    1  UNL1        0.0033
     13 C          65.9114   93.0969   14.4258 C.ar    1  UNL1        0.0207
     14 C          65.4337   92.2453   15.5645 C.ar    1  UNL1        0.0991
     15 N          64.8839   90.8755   15.2974 N.ar    1  UNL1       -0.2361
     16 C          66.3170   93.4303   11.8814 C.ar    1  UNL1        0.0001
     17 C          66.1542   94.9203   11.9394 C.ar    1  UNL1        0.0000
     18 C          66.6319   95.7719   10.8007 C.ar    1  UNL1        0.0000
     19 C          67.2723   95.1335    9.6040 C.ar    1  UNL1        0.0000
     20 C          67.4351   93.6435    9.5459 C.ar    1  UNL1        0.0000
     21 C          66.9574   92.7919   10.6846 C.ar    1  UNL1        0.0000
     22 S          62.5781   82.8322   13.8086 S.O2    1  UNL1        0.0054
     23 O          62.3933   82.4407   12.3724 O.2     1  UNL1       -0.1689
     24 O          62.7629   83.2238   15.2447 O.2     1  UNL1       -0.1689
     25 C          62.3977   80.3161   13.1867 C.3     1  UNL1        0.0276
     26 C          62.3973   81.4017   14.2219 C.3     1  UNL1        0.1556
@<TRIPOS>BOND
     1    25    26    1
     2    26    22    1
     3    22    23    2
     4    22    24    2
     5    22     1    1
     6     1     2    2
     7     2     3    1
     8     3     4    2
     9     4     5    1
    10     5     6    2
    11     6    10    1
    12    10    11   ar
    13    11    12   ar
    14    12    16    1
    15    16    17   ar
    16    17    18   ar
    17    18    19   ar
    18    19    20   ar
    19    20    21   ar
    20    12    13   ar
    21    13    14   ar
    22    14    15   ar
    23     6     7    1
    24     7     8    2
    25     8     9    1
    26     9     1    1
    27     8     4    1
    28    15    10   ar
    29    21    16   ar
@<TRIPOS>MOLECULE
*****
 26 29 0 0 0
SMALL
GASTEIGER

@<TRIPOS>ATOM
      1 C          63.0425   81.9500   12.7494 C.2     1  UNL1        0.0919
      2 C          63.4829   82.0418   14.1803 C.2     1  UNL1        0.0183
      3 C          63.7468   83.3824   14.7992 C.2     1  UNL1        0.0511
      4 C          63.5704   84.6312   13.9873 C.2     1  UNL1        0.2322
      5 N          63.7545   86.0814   14.3235 N.2     1  UNL1       -0.0295
      6 C          63.4279   86.8859   13.1003 C.2     1  UNL1        0.3932
      7 N          63.0419   85.9329   12.0081 N.2     1  UNL1       -0.0333
      8 C          63.1300   84.5394   12.5564 C.2     1  UNL1        0.2192
      9 C          62.8660   83.1988   11.9374 C.3     1  UNL1        0.1226
     10 C          63.4784   88.3809   12.9889 C.ar    1  UNL1        0.1694
     11 C          64.5204   89.1543   13.7413 C.ar    1  UNL1        0.0270
     12 C          64.5710   90.6493   13.6299 C.ar    1  UNL1        0.0033
     13 C          63.5794   91.3709   12.7662 C.ar    1  UNL1        0.0207
     14 C          62.5374   90.5975   12.0138 C.ar    1  UNL1        0.0991
     15 N          62.4868   89.1026   12.1252 N.ar    1  UNL1       -0.2361
     16 C          65.6130   91.4226   14.3822 C.ar    1  UNL1        0.0001
     17 C          66.9719   91.6303   13.7820 C.ar    1  UNL1        0.0000
     18 C          68.0139   92.4036   14.5344 C.ar    1  UNL1        0.0000
     19 C          67.6971   92.9693   15.8870 C.ar    1  UNL1        0.0000
     20 C          66.3383   92.7616   16.4872 C.ar    1  UNL1        0.0000
     21 C          65.2962   91.9883   15.7349 C.ar    1  UNL1        0.0000
     22 S          62.7786   80.6094   12.1304 S.O2    1  UNL1        0.0054
     23 O          62.4030   80.0622   13.4756 O.2     1  UNL1       -0.1689
     24 O          63.1541   81.1565   10.7852 O.2     1  UNL1       -0.1689
     25 C          62.7993   79.0457   10.0557 C.3     1  UNL1        0.0276
     26 C          62.5146   79.2688   11.5114 C.3     1  UNL1        0.1556
@<TRIPOS>BOND
     1    25    26    1
     2    26    22    1
     3    22    23    2
     4    22    24    2
     5    22     1    1
     6     1     2    2
     7     2     3    1
     8     3     4    2
     9     4     5    1
    10     5     6    2
    11     6    10    1
    12    10    11   ar
    13    11    12   ar
    14    12    16    1
    15    16    17   ar
    16    17    18   ar
    17    18    19   ar
    18    19    20   ar
    19    20    21   ar
    20    12    13   ar
    21    13    14   ar
    22    14    15   ar
    23     6     7    1
    24     7     8    2
    25     8     9    1
    26     9     1    1
    27     8     4    1
    28    15    10   ar
    29    21    16   ar
@<TRIPOS>MOLECULE
*****
 26 29 0 0 0
SMALL
GASTEIGER

@<TRIPOS>ATOM
      1 C          62.8953   82.2998   12.0319 C.2     1  UNL1        0.0919
      2 C          62.6981   83.0796   10.7659 C.2     1  UNL1        0.0183
      3 C          62.7675   84.5778   10.7892 C.2     1  UNL1        0.0511
      4 C          63.0341   85.2963   12.0787 C.2     1  UNL1        0.2322
      5 N          63.1577   86.7544   12.4084 N.2     1  UNL1       -0.0295
      6 C          63.4313   86.8757   13.8782 C.2     1  UNL1        0.3932
      7 N          63.4768   85.4927   14.4570 N.2     1  UNL1       -0.0333
      8 C          63.2313   84.5165   13.3448 C.2     1  UNL1        0.2192
      9 C          63.1619   83.0183   13.3214 C.3     1  UNL1        0.1226
     10 C          63.6253   88.1556   14.6362 C.ar    1  UNL1        0.1694
     11 C          64.3083   89.3192   13.9809 C.ar    1  UNL1        0.0270
     12 C          64.5023   90.5989   14.7388 C.ar    1  UNL1        0.0033
     13 C          64.0133   90.7151   16.1520 C.ar    1  UNL1        0.0207
     14 C          63.3302   89.5515   16.8073 C.ar    1  UNL1        0.0991
     15 N          63.1362   88.2717   16.0494 N.ar    1  UNL1       -0.2361
     16 C          65.1854   91.7625   14.0834 C.ar    1  UNL1        0.0001
     17 C          64.9945   92.0158   12.6174 C.ar    1  UNL1        0.0000
     18 C          65.6776   93.1794   11.9621 C.ar    1  UNL1        0.0000
     19 C          66.5516   94.0897   12.7728 C.ar    1  UNL1        0.0000
     20 C          66.7425   93.8365   14.2388 C.ar    1  UNL1        0.0000
     21 C          66.0594   92.6729   14.8942 C.ar    1  UNL1        0.0000
     22 S          62.8259   80.8016   12.0085 S.O2    1  UNL1        0.0054
     23 O          63.0038   80.8166   10.5192 O.2     1  UNL1       -0.1689
     24 O          62.6480   80.7866   13.4979 O.2     1  UNL1       -0.1689
     25 C          62.7544   78.5731   10.6750 C.3     1  UNL1        0.0276
     26 C          62.7565   79.3034   11.9852 C.3     1  UNL1        0.1556
@<TRIPOS>BOND
     1    25    26    1
     2    26    22    1
     3    22    23    2
     4    22    24    2
     5    22     1    1
     6     1     2    2
     7     2     3    1
     8     3     4    2
     9     4     5    1
    10     5     6    2
    11     6    10    1
    12    10    11   ar
    13    11    12   ar
    14    12    16    1
    15    16    17   ar
    16    17    18   ar
    17    18    19   ar
    18    19    20   ar
    19    20    21   ar
    20    12    13   ar
    21    13    14   ar
    22    14    15   ar
    23     6     7    1
    24     7     8    2
    25     8     9    1
    26     9     1    1
    27     8     4    1
    28    15    10   ar
    29    21    16   ar
@<TRIPOS>MOLECULE
*****
 26 29 0 0 0
SMALL
GASTEIGER

@<TRIPOS>ATOM
      1 C          63.1262   83.4738   12.8173 C.2     1  UNL1        0.0919
      2 C          62.6609   84.1750   11.5756 C.2     1  UNL1        0.0183
      3 C          62.6880   85.6731   11.5054 C.2     1  UNL1        0.0511
      4 C          63.1803   86.4700   12.6769 C.2     1  UNL1        0.2322
      5 N          63.3218   87.9469   12.8980 N.2     1  UNL1       -0.0295
      6 C          63.8745   88.1585   14.2763 C.2     1  UNL1        0.3932
      7 N          64.0746   86.8124   14.9071 N.2     1  UNL1       -0.0333
      8 C          63.6456   85.7689   13.9186 C.2     1  UNL1        0.2192
      9 C          63.6185   84.2707   13.9888 C.3     1  UNL1        0.1226
     10 C          64.1744   89.4836   14.9122 C.ar    1  UNL1        0.1694
     11 C          65.5256   90.1108   14.7370 C.ar    1  UNL1        0.0270
     12 C          65.8256   91.4358   15.3728 C.ar    1  UNL1        0.0033
     13 C          64.7742   92.1336   16.1838 C.ar    1  UNL1        0.0207
     14 C          63.4230   91.5064   16.3590 C.ar    1  UNL1        0.0991
     15 N          63.1230   90.1814   15.7232 N.ar    1  UNL1       -0.2361
     16 C          67.1768   92.0630   15.1977 C.ar    1  UNL1        0.0001
     17 C          68.0319   91.6867   14.0242 C.ar    1  UNL1        0.0000
     18 C          69.3832   92.3140   13.8490 C.ar    1  UNL1        0.0000
     19 C          69.8793   93.3175   14.8473 C.ar    1  UNL1        0.0000
     20 C          69.0242   93.6938   16.0208 C.ar    1  UNL1        0.0000
     21 C          67.6730   93.0666   16.1960 C.ar    1  UNL1        0.0000
     22 S          63.0991   81.9757   12.8874 S.O2    1  UNL1        0.0054
     23 O          62.6347   81.9173   11.4623 O.2     1  UNL1       -0.1689
     24 O          63.5634   82.0341   14.3126 O.2     1  UNL1       -0.1689
     25 C          61.8514   79.7727   13.4706 C.3     1  UNL1        0.0276
     26 C          63.0720   80.4776   12.9576 C.3     1  UNL1        0.1556
@<TRIPOS>BOND
     1    25    26    1
     2    26    22    1
     3    22    23    2
     4    22    24    2
     5    22     1    1
     6     1     2    2
     7     2     3    1
     8     3     4    2
     9     4     5    1
    10     5     6    2
    11     6    10    1
    12    10    11   ar
    13    11    12   ar
    14    12    16    1
    15    16    17   ar
    16    17    18   ar
    17    18    19   ar
    18    19    20   ar
    19    20    21   ar
    20    12    13   ar
    21    13    14   ar
    22    14    15   ar
    23     6     7    1
    24     7     8    2
    25     8     9    1
    26     9     1    1
    27     8     4    1
    28    15    10   ar
    29    21    16   ar
@<TRIPOS>MOLECULE
*****
 26 29 0 0 0
SMALL
GASTEIGER

@<TRIPOS>ATOM
      1 C          46.4209   78.8130   19.0862 C.2     1  UNL1        0.0919
      2 C          47.7453   78.2152   19.4584 C.2     1  UNL1        0.0183
      3 C          47.9598   76.7353   19.3408 C.2     1  UNL1        0.0511
      4 C          46.8499   75.8532   18.8509 C.2     1  UNL1        0.2322
      5 N          46.7675   74.3715   18.6323 N.2     1  UNL1       -0.0295
      6 C          45.3921   74.0536   18.1250 C.2     1  UNL1        0.3932
      7 N          44.6245   75.3388   18.0300 N.2     1  UNL1       -0.0333
      8 C          45.5255   76.4510   18.4787 C.2     1  UNL1        0.2192
      9 C          45.3111   77.9309   18.5963 C.3     1  UNL1        0.1226
     10 C          44.8751   72.6898   17.7742 C.ar    1  UNL1        0.1694
     11 C          45.0834   72.1410   16.3939 C.ar    1  UNL1        0.0270
     12 C          44.5665   70.7773   16.0431 C.ar    1  UNL1        0.0033
     13 C          43.8413   69.9624   17.0726 C.ar    1  UNL1        0.0207
     14 C          43.6330   70.5112   18.4530 C.ar    1  UNL1        0.0991
     15 N          44.1499   71.8749   18.8038 N.ar    1  UNL1       -0.2361
     16 C          44.7747   70.2284   14.6627 C.ar    1  UNL1        0.0001
     17 C          46.0622   69.5418   14.3149 C.ar    1  UNL1        0.0000
     18 C          46.2705   68.9930   12.9346 C.ar    1  UNL1        0.0000
     19 C          45.1913   69.1308   11.9020 C.ar    1  UNL1        0.0000
     20 C          43.9038   69.8174   12.2497 C.ar    1  UNL1        0.0000
     21 C          43.6956   70.3662   13.6301 C.ar    1  UNL1        0.0000
     22 S          46.2064   80.2929   19.2038 S.O2    1  UNL1        0.0054
     23 O          44.8255   80.0504   19.7369 O.2     1  UNL1       -0.1689
     24 O          47.5874   80.5354   18.6708 O.2     1  UNL1       -0.1689
     25 C          44.6045   82.3379   19.2467 C.3     1  UNL1        0.0276
     26 C          45.9920   81.7728   19.3215 C.3     1  UNL1        0.1556
@<TRIPOS>BOND
     1    25    26    1
     2    26    22    1
     3    22    23    2
     4    22    24    2
     5    22     1    1
     6     1     2    2
     7     2     3    1
     8     3     4    2
     9     4     5    1
    10     5     6    2
    11     6    10    1
    12    10    11   ar
    13    11    12   ar
    14    12    16    1
    15    16    17   ar
    16    17    18   ar
    17    18    19   ar
    18    19    20   ar
    19    20    21   ar
    20    12    13   ar
    21    13    14   ar
    22    14    15   ar
    23     6     7    1
    24     7     8    2
    25     8     9    1
    26     9     1    1
    27     8     4    1
    28    15    10   ar
    29    21    16   ar
