@<TRIPOS>MOLECULE
*****
 34 38 0 0 0
SMALL
GASTEIGER

@<TRIPOS>ATOM
      1 C          63.1148   90.9353   11.4412 C.3     1  UNL1        0.0749
      2 C          64.3428   91.7965   11.4295 C.3     1  UNL1        0.0444
      3 C          65.1245   92.0053   12.6926 C.ar    1  UNL1       -0.0101
      4 C          64.6781   91.3529   13.9674 C.ar    1  UNL1       -0.0091
      5 C          65.4598   91.5617   15.2305 C.ar    1  UNL1       -0.0032
      6 C          66.6878   92.4229   15.2188 C.ar    1  UNL1        0.0010
      7 C          67.1342   93.0753   13.9440 C.ar    1  UNL1        0.0142
      8 C          66.3526   92.8665   12.6809 C.ar    1  UNL1        0.0436
      9 C          63.4500   90.4917   13.9791 C.3     1  UNL1        0.0954
     10 N          62.6684   90.2829   12.7160 N.3     1  UNL1       -0.2934
     11 H          61.7203   90.6116   12.8987 H       1  UNL1        0.1236
     12 N          66.7990   93.5190   11.4061 N.pl3   1  UNL1       -0.3049
     13 C          67.5892   92.7361   10.3997 C.3     1  UNL1        0.1079
     14 C          68.0356   93.3886    9.1249 C.3     1  UNL1        0.0903
     15 N          67.6918   94.8238    8.8566 N.3     1  UNL1       -0.2946
     16 C          66.9016   95.6065    9.8630 C.3     1  UNL1        0.0903
     17 C          66.4552   94.9541   11.1377 C.3     1  UNL1        0.1079
     18 H          67.1599   94.8414    7.9864 H       1  UNL1        0.1233
     19 C          62.3331   90.7265   10.1781 C.3     1  UNL1        0.0886
     20 N          60.9784   90.0846   10.2319 N.3     1  UNL1       -0.2657
     21 C          60.7549   88.7494    9.5859 C.3     1  UNL1        0.0979
     22 C          59.9214   88.6478    8.3430 C.3     1  UNL1        0.0224
     23 C          59.6979   87.3126    7.6969 C.3     1  UNL1        0.0065
     24 C          60.3080   86.0791    8.2937 C.3     1  UNL1        0.0277
     25 C          61.1415   86.1807    9.5367 C.ar    1  UNL1       -0.0073
     26 C          61.7516   84.9472   10.1335 C.ar    1  UNL1       -0.0015
     27 C          62.5851   85.0489   11.3764 C.ar    1  UNL1        0.0203
     28 C          62.8086   86.3840   12.0225 C.ar    1  UNL1        0.0985
     29 N          62.1986   87.6175   11.4256 N.ar    1  UNL1       -0.2471
     30 C          61.3650   87.5159   10.1828 C.ar    1  UNL1        0.0695
     31 C          59.8472   90.7779   10.9318 C.3     1  UNL1        0.1048
     32 C          58.9450   90.0045   11.8471 C.3     1  UNL1        0.1595
     33 C          58.5998   88.6157   14.0156 C.3     1  UNL1        0.1742
     34 O          59.5132   89.3095   13.0488 O.3     1  UNL1       -0.3496
@<TRIPOS>BOND
     1    33    34    1
     2    34    32    1
     3    32    31    1
     4    31    20    1
     5    20    19    1
     6     1    19    1
     7     1     2    1
     8     2     3    1
     9     3     4   ar
    10     4     5   ar
    11     5     6   ar
    12     6     7   ar
    13     7     8   ar
    14     8    12    1
    15    12    13    1
    16    13    14    1
    17    14    15    1
    18    15    16    1
    19    16    17    1
    20     4     9    1
    21     9    10    1
    22    21    20    1
    23    21    22    1
    24    22    23    1
    25    23    24    1
    26    24    25    1
    27    25    26   ar
    28    26    27   ar
    29    27    28   ar
    30    28    29   ar
    31    29    30   ar
    32    10     1    1
    33    30    21    1
    34     8     3   ar
    35    17    12    1
    36    30    25   ar
    37    15    18    1
    38    10    11    1
@<TRIPOS>MOLECULE
*****
 34 38 0 0 0
SMALL
GASTEIGER

@<TRIPOS>ATOM
      1 C          64.3556   86.5005   14.4975 C.3     1  UNL1        0.0749
      2 C          63.7133   85.9243   13.2705 C.3     1  UNL1        0.0444
      3 C          63.3073   84.4806   13.2442 C.ar    1  UNL1       -0.0101
      4 C          63.5435   83.6131   14.4449 C.ar    1  UNL1       -0.0091
      5 C          63.1374   82.1693   14.4186 C.ar    1  UNL1       -0.0032
      6 C          62.4952   81.5930   13.1916 C.ar    1  UNL1        0.0010
      7 C          62.2590   82.4606   11.9909 C.ar    1  UNL1        0.0142
      8 C          62.6650   83.9043   12.0172 C.ar    1  UNL1        0.0436
      9 C          64.1857   84.1893   15.6719 C.3     1  UNL1        0.0954
     10 N          64.5918   85.6330   15.6981 N.3     1  UNL1       -0.2934
     11 H          65.5946   85.6535   15.8835 H       1  UNL1        0.1236
     12 N          62.4288   84.7718   10.8165 N.pl3   1  UNL1       -0.3049
     13 C          63.2505   84.5765    9.5768 C.3     1  UNL1        0.1079
     14 C          63.0143   85.4440    8.3761 C.3     1  UNL1        0.0903
     15 N          61.9564   86.5068    8.4152 N.3     1  UNL1       -0.2946
     16 C          61.1349   86.7021    9.6549 C.3     1  UNL1        0.0903
     17 C          61.3711   85.8346   10.8555 C.3     1  UNL1        0.1079
     18 H          61.3038   86.3006    7.6589 H       1  UNL1        0.1233
     19 C          64.7616   87.9443   14.5238 C.3     1  UNL1        0.0886
     20 N          63.7287   89.0173   14.3457 N.3     1  UNL1       -0.2657
     21 C          63.5960   89.7192   13.0267 C.3     1  UNL1        0.0979
     22 C          62.6526   89.1905   11.9874 C.3     1  UNL1        0.0224
     23 C          62.5199   89.8923   10.6684 C.3     1  UNL1        0.0065
     24 C          63.3307   91.1230   10.3888 C.3     1  UNL1        0.0277
     25 C          64.2741   91.6518   11.4282 C.ar    1  UNL1       -0.0073
     26 C          65.0849   92.8824   11.1486 C.ar    1  UNL1       -0.0015
     27 C          66.0283   93.4112   12.1879 C.ar    1  UNL1        0.0203
     28 C          66.1609   92.7093   13.5069 C.ar    1  UNL1        0.0985
     29 N          65.3502   91.4786   13.7865 N.ar    1  UNL1       -0.2471
     30 C          64.4068   90.9499   12.7472 C.ar    1  UNL1        0.0695
     31 C          62.8284   89.3884   15.4867 C.3     1  UNL1        0.1048
     32 C          62.9959   88.7240   16.8210 C.3     1  UNL1        0.1595
     33 C          62.6927   86.6174   18.3111 C.3     1  UNL1        0.1742
     34 O          62.3175   87.4151   17.0974 O.3     1  UNL1       -0.3496
@<TRIPOS>BOND
     1    33    34    1
     2    34    32    1
     3    32    31    1
     4    31    20    1
     5    20    19    1
     6     1    19    1
     7     1     2    1
     8     2     3    1
     9     3     4   ar
    10     4     5   ar
    11     5     6   ar
    12     6     7   ar
    13     7     8   ar
    14     8    12    1
    15    12    13    1
    16    13    14    1
    17    14    15    1
    18    15    16    1
    19    16    17    1
    20     4     9    1
    21     9    10    1
    22    21    20    1
    23    21    22    1
    24    22    23    1
    25    23    24    1
    26    24    25    1
    27    25    26   ar
    28    26    27   ar
    29    27    28   ar
    30    28    29   ar
    31    29    30   ar
    32    10     1    1
    33    30    21    1
    34     8     3   ar
    35    17    12    1
    36    30    25   ar
    37    15    18    1
    38    10    11    1
@<TRIPOS>MOLECULE
*****
 34 38 0 0 0
SMALL
GASTEIGER

@<TRIPOS>ATOM
      1 C          63.2733   89.9981   11.8372 C.3     1  UNL1        0.0749
      2 C          64.2926   91.0973   11.7870 C.3     1  UNL1        0.0444
      3 C          64.8944   91.6206   13.0574 C.ar    1  UNL1       -0.0101
      4 C          64.4768   91.0447   14.3779 C.ar    1  UNL1       -0.0091
      5 C          65.0787   91.5681   15.6484 C.ar    1  UNL1       -0.0032
      6 C          66.0980   92.6673   15.5982 C.ar    1  UNL1        0.0010
      7 C          66.5155   93.2433   14.2776 C.ar    1  UNL1        0.0142
      8 C          65.9137   92.7200   13.0072 C.ar    1  UNL1        0.0436
      9 C          63.4575   89.9454   14.4281 C.3     1  UNL1        0.0954
     10 N          62.8557   89.4221   13.1578 N.3     1  UNL1       -0.2934
     11 H          61.8474   89.5569   13.2322 H       1  UNL1        0.1236
     12 N          66.3313   93.2959   11.6866 N.pl3   1  UNL1       -0.3049
     13 C          67.2179   92.5057   10.7704 C.3     1  UNL1        0.1079
     14 C          67.6355   93.0816    9.4498 C.3     1  UNL1        0.0903
     15 N          67.1663   94.4478    9.0454 N.3     1  UNL1       -0.2946
     16 C          66.2797   95.2380    9.9616 C.3     1  UNL1        0.0903
     17 C          65.8621   94.6621   11.2822 C.3     1  UNL1        0.1079
     18 H          66.6586   94.3370    8.1677 H       1  UNL1        0.1233
     19 C          62.6714   89.4747   10.5667 C.3     1  UNL1        0.0886
     20 N          61.7594   88.2844   10.6036 N.3     1  UNL1       -0.2657
     21 C          62.2487   86.9495   10.1254 C.3     1  UNL1        0.0979
     22 C          62.2088   86.6157    8.6636 C.3     1  UNL1        0.0224
     23 C          62.6981   85.2809    8.1855 C.3     1  UNL1        0.0065
     24 C          63.2274   84.2797    9.1691 C.3     1  UNL1        0.0277
     25 C          63.2673   84.6135   10.6310 C.ar    1  UNL1       -0.0073
     26 C          63.7966   83.6124   11.6147 C.ar    1  UNL1       -0.0015
     27 C          63.8366   83.9462   13.0765 C.ar    1  UNL1        0.0203
     28 C          63.3472   85.2811   13.5546 C.ar    1  UNL1        0.0985
     29 N          62.8180   86.2822   12.5710 N.ar    1  UNL1       -0.2471
     30 C          62.7780   85.9484   11.1092 C.ar    1  UNL1        0.0695
     31 C          60.3580   88.4290   11.1186 C.3     1  UNL1        0.1048
     32 C          59.7726   89.7942   11.3269 C.3     1  UNL1        0.1595
     33 C          58.1939   88.8730   13.1733 C.3     1  UNL1        0.1742
     34 O          58.5925   89.9736   12.2352 O.3     1  UNL1       -0.3496
@<TRIPOS>BOND
     1    33    34    1
     2    34    32    1
     3    32    31    1
     4    31    20    1
     5    20    19    1
     6     1    19    1
     7     1     2    1
     8     2     3    1
     9     3     4   ar
    10     4     5   ar
    11     5     6   ar
    12     6     7   ar
    13     7     8   ar
    14     8    12    1
    15    12    13    1
    16    13    14    1
    17    14    15    1
    18    15    16    1
    19    16    17    1
    20     4     9    1
    21     9    10    1
    22    21    20    1
    23    21    22    1
    24    22    23    1
    25    23    24    1
    26    24    25    1
    27    25    26   ar
    28    26    27   ar
    29    27    28   ar
    30    28    29   ar
    31    29    30   ar
    32    10     1    1
    33    30    21    1
    34     8     3   ar
    35    17    12    1
    36    30    25   ar
    37    15    18    1
    38    10    11    1
@<TRIPOS>MOLECULE
*****
 34 38 0 0 0
SMALL
GASTEIGER

@<TRIPOS>ATOM
      1 C          63.8715   91.6693   10.8989 C.3     1  UNL1        0.0749
      2 C          64.1167   91.2118   12.3062 C.3     1  UNL1        0.0444
      3 C          65.1053   91.9381   13.1694 C.ar    1  UNL1       -0.0101
      4 C          65.8487   93.1218   12.6253 C.ar    1  UNL1       -0.0091
      5 C          66.8374   93.8481   13.4886 C.ar    1  UNL1       -0.0032
      6 C          67.0825   93.3906   14.8959 C.ar    1  UNL1        0.0010
      7 C          66.3390   92.2069   15.4400 C.ar    1  UNL1        0.0142
      8 C          65.3504   91.4806   14.5768 C.ar    1  UNL1        0.0436
      9 C          65.6036   93.5793   11.2180 C.3     1  UNL1        0.0954
     10 N          64.6150   92.8530   10.3548 N.3     1  UNL1       -0.2934
     11 H          65.1244   92.5284    9.5329 H       1  UNL1        0.1236
     12 N          64.6069   90.2969   15.1209 N.pl3   1  UNL1       -0.3049
     13 C          63.6542   90.4714   16.2664 C.3     1  UNL1        0.1079
     14 C          62.9107   89.2877   16.8105 C.3     1  UNL1        0.0903
     15 N          63.1200   87.9295   16.2092 N.3     1  UNL1       -0.2946
     16 C          64.0727   87.7550   15.0638 C.3     1  UNL1        0.0903
     17 C          64.8162   88.9387   14.5197 C.3     1  UNL1        0.1079
     18 H          62.2081   87.6071   15.8853 H       1  UNL1        0.1233
     19 C          62.8829   90.9430   10.0356 C.3     1  UNL1        0.0886
     20 N          61.7802   90.1454   10.6662 N.3     1  UNL1       -0.2657
     21 C          61.7303   88.6577   10.4814 C.3     1  UNL1        0.0979
     22 C          62.5153   87.7619   11.3932 C.3     1  UNL1        0.0224
     23 C          62.4654   86.2742   11.2083 C.3     1  UNL1        0.0065
     24 C          61.6306   85.6822   10.1117 C.3     1  UNL1        0.0277
     25 C          60.8455   86.5780    9.1999 C.ar    1  UNL1       -0.0073
     26 C          60.0107   85.9861    8.1033 C.ar    1  UNL1       -0.0015
     27 C          59.2257   86.8818    7.1916 C.ar    1  UNL1        0.0203
     28 C          59.2756   88.3696    7.3764 C.ar    1  UNL1        0.0985
     29 N          60.1104   88.9615    8.4730 N.ar    1  UNL1       -0.2471
     30 C          60.8954   88.0658    9.3847 C.ar    1  UNL1        0.0695
     31 C          60.7272   90.8356   11.4818 C.3     1  UNL1        0.1048
     32 C          59.4092   90.1633   11.7286 C.3     1  UNL1        0.1595
     33 C          57.9647   88.7003   13.3169 C.3     1  UNL1        0.1742
     34 O          59.3038   89.0727   12.7529 O.3     1  UNL1       -0.3496
@<TRIPOS>BOND
     1    33    34    1
     2    34    32    1
     3    32    31    1
     4    31    20    1
     5    20    19    1
     6     1    19    1
     7     1     2    1
     8     2     3    1
     9     3     4   ar
    10     4     5   ar
    11     5     6   ar
    12     6     7   ar
    13     7     8   ar
    14     8    12    1
    15    12    13    1
    16    13    14    1
    17    14    15    1
    18    15    16    1
    19    16    17    1
    20     4     9    1
    21     9    10    1
    22    21    20    1
    23    21    22    1
    24    22    23    1
    25    23    24    1
    26    24    25    1
    27    25    26   ar
    28    26    27   ar
    29    27    28   ar
    30    28    29   ar
    31    29    30   ar
    32    10     1    1
    33    30    21    1
    34     8     3   ar
    35    17    12    1
    36    30    25   ar
    37    15    18    1
    38    10    11    1
@<TRIPOS>MOLECULE
*****
 34 38 0 0 0
SMALL
GASTEIGER

@<TRIPOS>ATOM
      1 C          61.6631   89.2320   11.0393 C.3     1  UNL1        0.0749
      2 C          62.4441   89.1594   12.3178 C.3     1  UNL1        0.0444
      3 C          63.5513   90.1376   12.5768 C.ar    1  UNL1       -0.0101
      4 C          63.8774   91.1885   11.5573 C.ar    1  UNL1       -0.0091
      5 C          64.9846   92.1668   11.8165 C.ar    1  UNL1       -0.0032
      6 C          65.7657   92.0942   13.0950 C.ar    1  UNL1        0.0010
      7 C          65.4396   91.0433   14.1144 C.ar    1  UNL1        0.0142
      8 C          64.3324   90.0650   13.8554 C.ar    1  UNL1        0.0436
      9 C          63.0964   91.2611   10.2788 C.3     1  UNL1        0.0954
     10 N          61.9892   90.2829   10.0198 N.3     1  UNL1       -0.2934
     11 H          62.2252   89.7928    9.1569 H       1  UNL1        0.1236
     12 N          64.0063   89.0141   14.8748 N.pl3   1  UNL1       -0.3049
     13 C          63.2742   89.3880   16.1296 C.3     1  UNL1        0.1079
     14 C          62.9481   88.3371   17.1490 C.3     1  UNL1        0.0903
     15 N          63.3541   86.9124   16.9138 N.3     1  UNL1       -0.2946
     16 C          64.0862   86.5386   15.6591 C.3     1  UNL1        0.0903
     17 C          64.4123   87.5894   14.6396 C.3     1  UNL1        0.1079
     18 H          62.4996   86.3557   16.9331 H       1  UNL1        0.1233
     19 C          60.5559   88.2537   10.7802 C.3     1  UNL1        0.0886
     20 N          60.5304   87.4714    9.5006 N.3     1  UNL1       -0.2657
     21 C          61.5152   86.3617    9.2802 C.3     1  UNL1        0.0979
     22 C          61.9611   86.0199    7.8894 C.3     1  UNL1        0.0224
     23 C          62.9459   84.9101    7.6690 C.3     1  UNL1        0.0065
     24 C          63.4848   84.1421    8.8394 C.3     1  UNL1        0.0277
     25 C          63.0388   84.4839   10.2303 C.ar    1  UNL1       -0.0073
     26 C          63.5777   83.7160   11.4006 C.ar    1  UNL1       -0.0015
     27 C          63.1317   84.0578   12.7914 C.ar    1  UNL1        0.0203
     28 C          62.1469   85.1675   13.0118 C.ar    1  UNL1        0.0985
     29 N          61.6081   85.9355   11.8414 N.ar    1  UNL1       -0.2471
     30 C          62.0540   85.5937   10.4507 C.ar    1  UNL1        0.0695
     31 C          59.5200   87.7989    8.4413 C.3     1  UNL1        0.1048
     32 C          59.6443   89.0693    7.6535 C.3     1  UNL1        0.1595
     33 C          58.9322   90.5429    5.6357 C.3     1  UNL1        0.1742
     34 O          58.8528   89.2501    6.3922 O.3     1  UNL1       -0.3496
@<TRIPOS>BOND
     1    33    34    1
     2    34    32    1
     3    32    31    1
     4    31    20    1
     5    20    19    1
     6     1    19    1
     7     1     2    1
     8     2     3    1
     9     3     4   ar
    10     4     5   ar
    11     5     6   ar
    12     6     7   ar
    13     7     8   ar
    14     8    12    1
    15    12    13    1
    16    13    14    1
    17    14    15    1
    18    15    16    1
    19    16    17    1
    20     4     9    1
    21     9    10    1
    22    21    20    1
    23    21    22    1
    24    22    23    1
    25    23    24    1
    26    24    25    1
    27    25    26   ar
    28    26    27   ar
    29    27    28   ar
    30    28    29   ar
    31    29    30   ar
    32    10     1    1
    33    30    21    1
    34     8     3   ar
    35    17    12    1
    36    30    25   ar
    37    15    18    1
    38    10    11    1
@<TRIPOS>MOLECULE
*****
 34 38 0 0 0
SMALL
GASTEIGER

@<TRIPOS>ATOM
      1 C          62.6925   90.0157   10.7137 C.3     1  UNL1        0.0749
      2 C          63.1897   89.7757   12.1083 C.3     1  UNL1        0.0444
      3 C          64.1844   90.7158   12.7221 C.ar    1  UNL1       -0.0101
      4 C          64.6818   91.8960   11.9412 C.ar    1  UNL1       -0.0091
      5 C          65.6765   92.8362   12.5550 C.ar    1  UNL1       -0.0032
      6 C          66.1738   92.5962   13.9496 C.ar    1  UNL1        0.0010
      7 C          65.6763   91.4160   14.7305 C.ar    1  UNL1        0.0142
      8 C          64.6817   90.4759   14.1168 C.ar    1  UNL1        0.0436
      9 C          64.1846   92.1360   10.5465 C.3     1  UNL1        0.0954
     10 N          63.1899   91.1959    9.9328 N.3     1  UNL1       -0.2934
     11 H          63.6181   90.8276    9.0834 H       1  UNL1        0.1236
     12 N          64.1843   89.2957   14.8977 N.pl3   1  UNL1       -0.3049
     13 C          64.5712   87.9064   14.4851 C.3     1  UNL1        0.1079
     14 C          64.0738   86.7262   15.2660 C.3     1  UNL1        0.0903
     15 N          63.1895   86.9354   16.4595 N.3     1  UNL1       -0.2946
     16 C          62.8026   88.3246   16.8720 C.3     1  UNL1        0.0903
     17 C          63.3000   89.5048   16.0911 C.3     1  UNL1        0.1079
     18 H          63.6660   86.5135   17.2566 H       1  UNL1        0.1233
     19 C          61.6978   89.0755   10.0998 C.3     1  UNL1        0.0886
     20 N          61.4427   87.7380   10.7290 N.3     1  UNL1       -0.2657
     21 C          62.1299   86.5155   10.1969 C.3     1  UNL1        0.0979
     22 C          62.4367   86.4050    8.7327 C.3     1  UNL1        0.0224
     23 C          63.1239   85.1825    8.2006 C.3     1  UNL1        0.0065
     24 C          63.5044   84.0705    9.1325 C.3     1  UNL1        0.0277
     25 C          63.1977   84.1810   10.5967 C.ar    1  UNL1       -0.0073
     26 C          63.5782   83.0689   11.5287 C.ar    1  UNL1       -0.0015
     27 C          63.2715   83.1794   12.9928 C.ar    1  UNL1        0.0203
     28 C          62.5842   84.4019   13.5249 C.ar    1  UNL1        0.0985
     29 N          62.2037   85.5139   12.5930 N.ar    1  UNL1       -0.2471
     30 C          62.5105   85.4035   11.1289 C.ar    1  UNL1        0.0695
     31 C          60.5003   87.6229   11.8904 C.3     1  UNL1        0.1048
     32 C          59.2829   88.4965   11.9578 C.3     1  UNL1        0.1595
     33 C          59.0156   91.0511   11.5672 C.3     1  UNL1        0.1742
     34 O          59.3980   89.9061   12.4576 O.3     1  UNL1       -0.3496
@<TRIPOS>BOND
     1    33    34    1
     2    34    32    1
     3    32    31    1
     4    31    20    1
     5    20    19    1
     6     1    19    1
     7     1     2    1
     8     2     3    1
     9     3     4   ar
    10     4     5   ar
    11     5     6   ar
    12     6     7   ar
    13     7     8   ar
    14     8    12    1
    15    12    13    1
    16    13    14    1
    17    14    15    1
    18    15    16    1
    19    16    17    1
    20     4     9    1
    21     9    10    1
    22    21    20    1
    23    21    22    1
    24    22    23    1
    25    23    24    1
    26    24    25    1
    27    25    26   ar
    28    26    27   ar
    29    27    28   ar
    30    28    29   ar
    31    29    30   ar
    32    10     1    1
    33    30    21    1
    34     8     3   ar
    35    17    12    1
    36    30    25   ar
    37    15    18    1
    38    10    11    1
@<TRIPOS>MOLECULE
*****
 34 38 0 0 0
SMALL
GASTEIGER

@<TRIPOS>ATOM
      1 C          61.3893   87.0330   10.2894 C.3     1  UNL1        0.0749
      2 C          62.0319   86.3166   11.4399 C.3     1  UNL1        0.0444
      3 C          62.8998   85.1196   11.1876 C.ar    1  UNL1       -0.0101
      4 C          63.1252   84.6389    9.7847 C.ar    1  UNL1       -0.0091
      5 C          63.9932   83.4418    9.5324 C.ar    1  UNL1       -0.0032
      6 C          64.6357   82.7254   10.6830 C.ar    1  UNL1        0.0010
      7 C          64.4103   83.2061   12.0859 C.ar    1  UNL1        0.0142
      8 C          63.5424   84.4031   12.3382 C.ar    1  UNL1        0.0436
      9 C          62.4826   85.3553    8.6341 C.3     1  UNL1        0.0954
     10 N          61.6147   86.5524    8.8864 N.3     1  UNL1       -0.2934
     11 H          60.6965   86.3375    8.4977 H       1  UNL1        0.1236
     12 N          63.3170   84.8838   13.7411 N.pl3   1  UNL1       -0.3049
     13 C          62.2764   84.2287   14.6003 C.3     1  UNL1        0.1079
     14 C          62.0510   84.7094   16.0032 C.3     1  UNL1        0.0903
     15 N          62.8662   85.8451   16.5470 N.3     1  UNL1       -0.2946
     16 C          63.9067   86.5001   15.6878 C.3     1  UNL1        0.0903
     17 C          64.1321   86.0195   14.2849 C.3     1  UNL1        0.1079
     18 H          63.3470   85.4927   17.3746 H       1  UNL1        0.1233
     19 C          60.5213   88.2301   10.5417 C.3     1  UNL1        0.0886
     20 N          60.8645   89.1862   11.6453 N.3     1  UNL1       -0.2657
     21 C          62.0782   90.0602   11.5301 C.3     1  UNL1        0.0979
     22 C          62.4381   90.6734   10.2094 C.3     1  UNL1        0.0224
     23 C          63.6517   91.5474   10.0942 C.3     1  UNL1        0.0065
     24 C          64.5054   91.8082   11.2996 C.3     1  UNL1        0.0277
     25 C          64.1455   91.1949   12.6204 C.ar    1  UNL1       -0.0073
     26 C          64.9991   91.4556   13.8259 C.ar    1  UNL1       -0.0015
     27 C          64.6392   90.8424   15.1466 C.ar    1  UNL1        0.0203
     28 C          63.4255   89.9684   15.2618 C.ar    1  UNL1        0.0985
     29 N          62.5719   89.7076   14.0564 N.ar    1  UNL1       -0.2471
     30 C          62.9318   90.3209   12.7357 C.ar    1  UNL1        0.0695
     31 C          59.9942   89.2683   12.8642 C.3     1  UNL1        0.1048
     32 C          58.5010   89.2553   12.7219 C.3     1  UNL1        0.1595
     33 C          56.2934   88.0261   13.3265 C.3     1  UNL1        0.1742
     34 O          57.6595   88.5092   13.7144 O.3     1  UNL1       -0.3496
@<TRIPOS>BOND
     1    33    34    1
     2    34    32    1
     3    32    31    1
     4    31    20    1
     5    20    19    1
     6     1    19    1
     7     1     2    1
     8     2     3    1
     9     3     4   ar
    10     4     5   ar
    11     5     6   ar
    12     6     7   ar
    13     7     8   ar
    14     8    12    1
    15    12    13    1
    16    13    14    1
    17    14    15    1
    18    15    16    1
    19    16    17    1
    20     4     9    1
    21     9    10    1
    22    21    20    1
    23    21    22    1
    24    22    23    1
    25    23    24    1
    26    24    25    1
    27    25    26   ar
    28    26    27   ar
    29    27    28   ar
    30    28    29   ar
    31    29    30   ar
    32    10     1    1
    33    30    21    1
    34     8     3   ar
    35    17    12    1
    36    30    25   ar
    37    15    18    1
    38    10    11    1
@<TRIPOS>MOLECULE
*****
 34 38 0 0 0
SMALL
GASTEIGER

@<TRIPOS>ATOM
      1 C          63.8309   91.5407   10.8165 C.3     1  UNL1        0.0749
      2 C          64.0771   91.1069   12.2311 C.3     1  UNL1        0.0444
      3 C          65.0204   91.8842   13.1005 C.ar    1  UNL1       -0.0101
      4 C          65.7176   93.0952   12.5553 C.ar    1  UNL1       -0.0091
      5 C          66.6611   93.8725   13.4247 C.ar    1  UNL1       -0.0032
      6 C          66.9072   93.4387   14.8393 C.ar    1  UNL1        0.0010
      7 C          66.2100   92.2276   15.3846 C.ar    1  UNL1        0.0142
      8 C          65.2666   91.4504   14.5152 C.ar    1  UNL1        0.0436
      9 C          65.4715   93.5290   11.1406 C.3     1  UNL1        0.0954
     10 N          64.5281   92.7517   10.2712 N.3     1  UNL1       -0.2934
     11 H          65.0626   92.4431    9.4592 H       1  UNL1        0.1236
     12 N          64.5694   90.2393   15.0604 N.pl3   1  UNL1       -0.3049
     13 C          64.8858   88.8803   14.5098 C.3     1  UNL1        0.1079
     14 C          64.1886   87.6693   15.0551 C.3     1  UNL1        0.0903
     15 N          63.1750   87.8173   16.1509 N.3     1  UNL1       -0.2946
     16 C          62.8586   89.1762   16.7014 C.3     1  UNL1        0.0903
     17 C          63.5558   90.3873   16.1561 C.3     1  UNL1        0.1079
     18 H          63.5029   87.2515   16.9337 H       1  UNL1        0.1233
     19 C          62.8875   90.7634    9.9470 C.3     1  UNL1        0.0886
     20 N          61.7772   89.9688   10.5681 N.3     1  UNL1       -0.2657
     21 C          61.3590   88.6626    9.9607 C.3     1  UNL1        0.0979
     22 C          60.4803   88.6480    8.7451 C.3     1  UNL1        0.0224
     23 C          60.0620   87.3418    8.1377 C.3     1  UNL1        0.0065
     24 C          60.5225   86.0503    8.7459 C.3     1  UNL1        0.0277
     25 C          61.4012   86.0649    9.9615 C.ar    1  UNL1       -0.0073
     26 C          61.8616   84.7733   10.5697 C.ar    1  UNL1       -0.0015
     27 C          62.7403   84.7880   11.7852 C.ar    1  UNL1        0.0203
     28 C          63.1586   86.0942   12.3926 C.ar    1  UNL1        0.0985
     29 N          62.6981   87.3857   11.7845 N.ar    1  UNL1       -0.2471
     30 C          61.8195   87.3710   10.5689 C.ar    1  UNL1        0.0695
     31 C          61.0851   90.4804   11.7967 C.3     1  UNL1        0.1048
     32 C          59.6437   90.1444   12.0403 C.3     1  UNL1        0.1595
     33 C          57.9124   88.6589   13.2837 C.3     1  UNL1        0.1742
     34 O          59.2761   88.8414   12.6862 O.3     1  UNL1       -0.3496
@<TRIPOS>BOND
     1    33    34    1
     2    34    32    1
     3    32    31    1
     4    31    20    1
     5    20    19    1
     6     1    19    1
     7     1     2    1
     8     2     3    1
     9     3     4   ar
    10     4     5   ar
    11     5     6   ar
    12     6     7   ar
    13     7     8   ar
    14     8    12    1
    15    12    13    1
    16    13    14    1
    17    14    15    1
    18    15    16    1
    19    16    17    1
    20     4     9    1
    21     9    10    1
    22    21    20    1
    23    21    22    1
    24    22    23    1
    25    23    24    1
    26    24    25    1
    27    25    26   ar
    28    26    27   ar
    29    27    28   ar
    30    28    29   ar
    31    29    30   ar
    32    10     1    1
    33    30    21    1
    34     8     3   ar
    35    17    12    1
    36    30    25   ar
    37    15    18    1
    38    10    11    1
@<TRIPOS>MOLECULE
*****
 34 38 0 0 0
SMALL
GASTEIGER

@<TRIPOS>ATOM
      1 C          64.1070   86.8975   14.5269 C.3     1  UNL1        0.0749
      2 C          63.6365   86.0726   13.3658 C.3     1  UNL1        0.0444
      3 C          63.1492   84.6717   13.5896 C.ar    1  UNL1       -0.0101
      4 C          63.1325   84.0958   14.9746 C.ar    1  UNL1       -0.0091
      5 C          62.6452   82.6948   15.1983 C.ar    1  UNL1       -0.0032
      6 C          62.1746   81.8700   14.0372 C.ar    1  UNL1        0.0010
      7 C          62.1914   82.4460   12.6523 C.ar    1  UNL1        0.0142
      8 C          62.6787   83.8468   12.4285 C.ar    1  UNL1        0.0436
      9 C          63.6030   84.9206   16.1356 C.3     1  UNL1        0.0954
     10 N          64.0902   86.3215   15.9118 N.3     1  UNL1       -0.2934
     11 H          65.0491   86.3585   16.2577 H       1  UNL1        0.1236
     12 N          62.6954   84.4228   11.0436 N.pl3   1  UNL1       -0.3049
     13 C          63.6525   83.8873   10.0202 C.3     1  UNL1        0.1079
     14 C          63.6692   84.4633    8.6353 C.3     1  UNL1        0.0903
     15 N          62.7289   85.5748    8.2738 N.3     1  UNL1       -0.2946
     16 C          61.7719   86.1102    9.2972 C.3     1  UNL1        0.0903
     17 C          61.7552   85.5342   10.6821 C.3     1  UNL1        0.1079
     18 H          62.1666   85.2418    7.4907 H       1  UNL1        0.1233
     19 C          64.5943   88.2984   14.3031 C.3     1  UNL1        0.0886
     20 N          63.6094   89.4168   14.1327 N.3     1  UNL1       -0.2657
     21 C          63.5215   90.1459   12.8247 C.3     1  UNL1        0.0979
     22 C          64.5747   91.1466   12.4517 C.3     1  UNL1        0.0224
     23 C          64.4868   91.8757   11.1437 C.3     1  UNL1        0.0065
     24 C          63.3457   91.6041   10.2089 C.3     1  UNL1        0.0277
     25 C          62.2924   90.6033   10.5819 C.ar    1  UNL1       -0.0073
     26 C          61.1513   90.3317    9.6470 C.ar    1  UNL1       -0.0015
     27 C          60.0981   89.3309   10.0201 C.ar    1  UNL1        0.0203
     28 C          60.1860   88.6018   11.3280 C.ar    1  UNL1        0.0985
     29 N          61.3271   88.8735   12.2629 N.ar    1  UNL1       -0.2471
     30 C          62.3803   89.8742   11.8898 C.ar    1  UNL1        0.0695
     31 C          62.7124   89.8062   15.2701 C.3     1  UNL1        0.1048
     32 C          63.3004   90.3663   16.5312 C.3     1  UNL1        0.1595
     33 C          65.0995   92.1837   16.0720 C.3     1  UNL1        0.1742
     34 O          63.7419   91.7990   16.5810 O.3     1  UNL1       -0.3496
@<TRIPOS>BOND
     1    33    34    1
     2    34    32    1
     3    32    31    1
     4    31    20    1
     5    20    19    1
     6     1    19    1
     7     1     2    1
     8     2     3    1
     9     3     4   ar
    10     4     5   ar
    11     5     6   ar
    12     6     7   ar
    13     7     8   ar
    14     8    12    1
    15    12    13    1
    16    13    14    1
    17    14    15    1
    18    15    16    1
    19    16    17    1
    20     4     9    1
    21     9    10    1
    22    21    20    1
    23    21    22    1
    24    22    23    1
    25    23    24    1
    26    24    25    1
    27    25    26   ar
    28    26    27   ar
    29    27    28   ar
    30    28    29   ar
    31    29    30   ar
    32    10     1    1
    33    30    21    1
    34     8     3   ar
    35    17    12    1
    36    30    25   ar
    37    15    18    1
    38    10    11    1
