@<TRIPOS>MOLECULE
*****
 47 51 0 0 0
SMALL
GASTEIGER

@<TRIPOS>ATOM
      1 C          62.1814   87.8216   10.5527 C.3     1  UNL1        0.1678
      2 C          62.4932   89.0222   11.3961 C.2     1  UNL1        0.2492
      3 O          62.1763   90.3517   10.7781 O.2     1  UNL1       -0.2727
      4 N          63.0799   89.0690   12.7758 N.am    1  UNL1       -0.2501
      5 C          63.4998   87.9269   13.6529 C.ar    1  UNL1        0.0679
      6 C          64.0401   88.4134   14.9649 C.ar    1  UNL1        0.0162
      7 C          64.5172   87.4287   15.9909 C.ar    1  UNL1        0.0014
      8 C          64.4540   85.9575   15.7048 C.ar    1  UNL1        0.0014
      9 C          63.9138   85.4711   14.3928 C.ar    1  UNL1        0.0162
     10 C          63.4366   86.4558   13.3668 C.ar    1  UNL1        0.0676
     11 N          62.9380   85.7635   12.1331 N.am    1  UNL1       -0.2556
     12 C          63.0071   84.2653   12.1546 C.2     1  UNL1        0.2535
     13 O          62.5335   83.4755   10.9705 O.2     1  UNL1       -0.2726
     14 C          62.3793   86.3713   10.8807 C.3     1  UNL1        0.1067
     15 C          61.9637   85.4005    9.8154 C.3     1  UNL1        0.0242
     16 C          60.1123   88.2876    9.0522 C.2     1  UNL1        0.2371
     17 O          59.2179   88.1783   10.2515 O.2     1  UNL1       -0.2737
     18 N          61.5940   88.1093    9.2028 N.am    1  UNL1       -0.2959
     19 H          62.1809   88.1810    8.4157 H       1  UNL1        0.1499
     20 C          59.5249   88.5753    7.7023 C.3     1  UNL1        0.1316
     21 C          58.7078   87.5304    7.0018 C.3     1  UNL1        0.0270
     22 C          59.0181   90.2666    5.7963 C.3     1  UNL1        0.0862
     23 N          59.7544   89.9078    7.0530 N.3     1  UNL1       -0.2902
     24 H          59.5175   90.6178    7.7460 H       1  UNL1        0.1237
     25 C          63.2722   90.4393   13.3550 C.3     1  UNL1        0.1457
     26 C          64.4909   91.2389   13.0010 C.ar    1  UNL1        0.1007
     27 N          64.9684   91.5509   11.6137 N.ar    1  UNL1       -0.1677
     28 N          66.2187   92.3718   11.7275 N.ar    1  UNL1       -0.2293
     29 C          66.5139   92.5671   13.1851 C.ar    1  UNL1        0.0840
     30 C          67.6172   93.2921   13.8974 C.ar    1  UNL1        0.0192
     31 C          67.6525   93.3169   15.3968 C.ar    1  UNL1        0.0015
     32 C          66.5847   92.6168   16.1838 C.ar    1  UNL1        0.0001
     33 C          65.4815   91.8918   15.4716 C.ar    1  UNL1        0.0028
     34 C          65.4461   91.8670   13.9722 C.ar    1  UNL1        0.0346
     35 C          67.0312   92.9039   10.5843 C.ar    1  UNL1        0.0923
     36 C          67.8233   91.9633    9.7253 C.ar    1  UNL1        0.0198
     37 C          68.6357   92.4954    8.5821 C.ar    1  UNL1        0.0016
     38 C          68.6560   93.9681    8.2980 C.ar    1  UNL1        0.0008
     39 C          67.8640   94.9087    9.1570 C.ar    1  UNL1        0.0118
     40 C          67.0515   94.3766   10.3001 C.ar    1  UNL1        0.0861
     41 C          66.2594   95.3172   11.1591 C.1     1  UNL1        0.1019
     42 N          65.4673   96.2578   12.0181 N.1     1  UNL1       -0.1908
     43 C          63.5498   83.5567   13.3602 C.3     1  UNL1        0.2357
     44 S          63.2567   82.1006   13.5695 S.O2    1  UNL1        0.0007
     45 C          62.9634   80.6446   13.7788 C.3     1  UNL1        0.1766
     46 O          64.4872   81.7409   12.7908 O.2     1  UNL1       -0.1725
     47 O          62.0262   82.4603   14.3482 O.2     1  UNL1       -0.1725
@<TRIPOS>BOND
     1    22    23    1
     2    23    20    1
     3    20    21    1
     4    20    16    1
     5    16    17    2
     6    16    18   am
     7     1    18    1
     8     1     2    1
     9     2     3    2
    10     2     4   am
    11     4    25    1
    12    25    26    1
    13    26    27   ar
    14    27    28   ar
    15    28    35    1
    16    35    36   ar
    17    36    37   ar
    18    37    38   ar
    19    38    39   ar
    20    39    40   ar
    21    40    41    1
    22    41    42    3
    23    28    29   ar
    24    29    30   ar
    25    30    31   ar
    26    31    32   ar
    27    32    33   ar
    28    33    34   ar
    29     4     5    1
    30     5     6   ar
    31     6     7   ar
    32     7     8   ar
    33     8     9   ar
    34     9    10   ar
    35    10    11    1
    36    11    12   am
    37    12    13    2
    38    12    43    1
    39    43    44    1
    40    44    45    1
    41    44    46    2
    42    44    47    2
    43    11    14    1
    44    14    15    1
    45    14     1    1
    46    34    26   ar
    47    10     5   ar
    48    40    35   ar
    49    34    29   ar
    50    23    24    1
    51    18    19    1
@<TRIPOS>MOLECULE
*****
 47 51 0 0 0
SMALL
GASTEIGER

@<TRIPOS>ATOM
      1 C          63.2896   90.1420   14.8892 C.3     1  UNL1        0.1678
      2 C          62.8034   90.0078   13.4765 C.2     1  UNL1        0.2492
      3 O          61.6742   89.0433   13.2658 O.2     1  UNL1       -0.2727
      4 N          63.2973   90.7105   12.2468 N.am    1  UNL1       -0.2501
      5 C          64.3992   91.7211   12.1259 C.ar    1  UNL1        0.0679
      6 C          64.5717   92.1768   10.7073 C.ar    1  UNL1        0.0162
      7 C          65.6245   93.1898   10.3678 C.ar    1  UNL1        0.0014
      8 C          66.5048   93.7472   11.4469 C.ar    1  UNL1        0.0014
      9 C          66.3323   93.2915   12.8655 C.ar    1  UNL1        0.0162
     10 C          65.2795   92.2784   13.2050 C.ar    1  UNL1        0.0676
     11 N          65.2752   91.9629   14.6715 N.am    1  UNL1       -0.2556
     12 C          66.2908   92.6950   15.4977 C.2     1  UNL1        0.2535
     13 O          66.3710   92.4525   16.9758 O.2     1  UNL1       -0.2726
     14 C          64.3897   91.0121   15.4211 C.3     1  UNL1        0.1067
     15 C          64.6368   90.9192   16.8976 C.3     1  UNL1        0.0242
     16 C          63.0852   87.9145   16.2107 C.2     1  UNL1        0.2371
     17 O          64.2958   87.3830   15.5020 O.2     1  UNL1       -0.2737
     18 N          62.5822   89.2940   15.9043 N.am    1  UNL1       -0.2959
     19 H          61.7877   89.6428   16.3694 H       1  UNL1        0.1499
     20 C          62.3778   87.0665   17.2258 C.3     1  UNL1        0.1316
     21 C          62.5686   87.3330   18.6896 C.3     1  UNL1        0.0270
     22 C          62.0586   84.7566   16.0802 C.3     1  UNL1        0.0862
     23 N          61.4797   85.9521   16.7772 N.3     1  UNL1       -0.2902
     24 H          61.0025   85.6053   17.6093 H       1  UNL1        0.1237
     25 C          62.5965   90.3558   10.9689 C.3     1  UNL1        0.1457
     26 C          62.2821   88.9223   10.6589 C.ar    1  UNL1        0.1007
     27 N          62.9308   87.7224   11.2830 N.ar    1  UNL1       -0.1677
     28 N          62.3133   86.4955   10.6802 N.ar    1  UNL1       -0.2293
     29 C          61.2830   86.9371    9.6834 C.ar    1  UNL1        0.0840
     30 C          60.3599   86.1672    8.7861 C.ar    1  UNL1        0.0192
     31 C          59.4175   86.8971    7.8755 C.ar    1  UNL1        0.0015
     32 C          59.3983   88.3970    7.8624 C.ar    1  UNL1        0.0001
     33 C          60.3213   89.1668    8.7597 C.ar    1  UNL1        0.0028
     34 C          61.2637   88.4369    9.6702 C.ar    1  UNL1        0.0346
     35 C          62.6645   85.0762   11.0153 C.ar    1  UNL1        0.0923
     36 C          62.5918   84.6011   12.4362 C.ar    1  UNL1        0.0198
     37 C          62.9430   83.1817   12.7713 C.ar    1  UNL1        0.0016
     38 C          63.3669   82.2376   11.6855 C.ar    1  UNL1        0.0008
     39 C          63.4396   82.7128   10.2646 C.ar    1  UNL1        0.0118
     40 C          63.0884   84.1321    9.9295 C.ar    1  UNL1        0.0861
     41 C          63.1611   84.6072    8.5086 C.1     1  UNL1        0.1019
     42 N          63.2339   85.0825    7.0877 N.1     1  UNL1       -0.1908
     43 C          67.2264   93.6697   14.8457 C.3     1  UNL1        0.2357
     44 S          68.6630   93.7307   15.2729 S.O2    1  UNL1        0.0007
     45 C          70.0995   93.7918   15.7000 C.3     1  UNL1        0.1766
     46 O          68.9758   92.5607   14.3878 O.2     1  UNL1       -0.1725
     47 O          68.3500   94.9007   16.1579 O.2     1  UNL1       -0.1725
@<TRIPOS>BOND
     1    22    23    1
     2    23    20    1
     3    20    21    1
     4    20    16    1
     5    16    17    2
     6    16    18   am
     7     1    18    1
     8     1     2    1
     9     2     3    2
    10     2     4   am
    11     4    25    1
    12    25    26    1
    13    26    27   ar
    14    27    28   ar
    15    28    35    1
    16    35    36   ar
    17    36    37   ar
    18    37    38   ar
    19    38    39   ar
    20    39    40   ar
    21    40    41    1
    22    41    42    3
    23    28    29   ar
    24    29    30   ar
    25    30    31   ar
    26    31    32   ar
    27    32    33   ar
    28    33    34   ar
    29     4     5    1
    30     5     6   ar
    31     6     7   ar
    32     7     8   ar
    33     8     9   ar
    34     9    10   ar
    35    10    11    1
    36    11    12   am
    37    12    13    2
    38    12    43    1
    39    43    44    1
    40    44    45    1
    41    44    46    2
    42    44    47    2
    43    11    14    1
    44    14    15    1
    45    14     1    1
    46    34    26   ar
    47    10     5   ar
    48    40    35   ar
    49    34    29   ar
    50    23    24    1
    51    18    19    1
