@<TRIPOS>MOLECULE
*****
 27 29 0 0 0
SMALL
GASTEIGER

@<TRIPOS>ATOM
      1 C          62.7616   88.5173   11.5118 C.ar    1  UNL1        0.1388
      2 C          63.2938   89.6222   12.3755 C.ar    1  UNL1        0.0538
      3 C          63.9248   89.3025   13.6982 C.ar    1  UNL1        0.0888
      4 N          64.0236   87.8779   14.1573 N.ar    1  UNL1       -0.2098
      5 C          63.4913   86.7731   13.2936 C.ar    1  UNL1        0.2539
      6 N          62.8603   87.0928   11.9709 N.ar    1  UNL1       -0.1948
      7 N          63.5901   85.3484   13.7527 N.ar    1  UNL1       -0.2008
      8 N          63.6916   84.1418   12.8673 N.ar    1  UNL1       -0.1673
      9 C          63.7689   82.9279   13.7451 C.ar    1  UNL1        0.0806
     10 C          63.8803   81.5072   13.2772 C.3     1  UNL1        0.0540
     11 C          63.7152   83.3843   15.1730 C.ar    1  UNL1        0.0313
     12 C          63.6047   84.8802   15.1777 C.ar    1  UNL1        0.0651
     13 C          63.5231   85.7545   16.3938 C.3     1  UNL1        0.0523
     14 C          64.4571   90.4075   14.5619 C.ar    1  UNL1        0.0400
     15 C          63.7224   90.8060   15.8074 C.ar    1  UNL1        0.1006
     16 N          64.2545   91.9109   16.6711 N.ar    1  UNL1       -0.2391
     17 C          65.5215   92.6173   16.2892 C.ar    1  UNL1        0.1356
     18 C          66.2562   92.2188   15.0436 C.ar    1  UNL1        0.1579
     19 C          65.7240   91.1139   14.1800 C.ar    1  UNL1        0.0416
     20 O          67.5231   92.9253   14.6617 O.3     1  UNL1       -0.4699
     21 C          68.4565   93.4195   15.7268 C.3     1  UNL1        0.2525
     22 C          60.6481   88.6934   10.0110 C.2     1  UNL1        0.2272
     23 O          59.7966   88.2300   11.1558 O.2     1  UNL1       -0.2747
     24 N          62.1306   88.8370   10.1891 N.am    1  UNL1       -0.2692
     25 H          62.6894   89.1412    9.4378 H       1  UNL1        0.1563
     26 C          59.3802   87.9231    7.8782 C.3     1  UNL1        0.0101
     27 C          60.0171   89.0131    8.6883 C.3     1  UNL1        0.0854
@<TRIPOS>BOND
     1    26    27    1
     2    27    22    1
     3    22    23    2
     4    22    24   am
     5    24     1    1
     6     1     2   ar
     7     2     3   ar
     8     3    14    1
     9    14    15   ar
    10    15    16   ar
    11    16    17   ar
    12    17    18   ar
    13    18    20    1
    14    20    21    1
    15    18    19   ar
    16     3     4   ar
    17     4     5   ar
    18     5     7    1
    19     7     8   ar
    20     8     9   ar
    21     9    10    1
    22     9    11   ar
    23    11    12   ar
    24    12    13    1
    25     5     6   ar
    26     6     1   ar
    27    19    14   ar
    28    12     7   ar
    29    24    25    1
@<TRIPOS>MOLECULE
*****
 27 29 0 0 0
SMALL
GASTEIGER

@<TRIPOS>ATOM
      1 C          61.4333   89.2545   10.2268 C.ar    1  UNL1        0.1388
      2 C          62.2745   90.2382   10.9849 C.ar    1  UNL1        0.0538
      3 C          63.2147   89.7569   12.0500 C.ar    1  UNL1        0.0888
      4 N          63.3137   88.2920   12.3570 N.ar    1  UNL1       -0.2098
      5 C          62.4725   87.3084   11.5989 C.ar    1  UNL1        0.2539
      6 N          61.5323   87.7896   10.5338 N.ar    1  UNL1       -0.1948
      7 N          62.5714   85.8434   11.9059 N.ar    1  UNL1       -0.2008
      8 N          62.4459   85.2165   13.2628 N.ar    1  UNL1       -0.1673
      9 C          62.6101   83.7339   13.1055 C.ar    1  UNL1        0.0806
     10 C          62.5567   82.7189   14.2086 C.3     1  UNL1        0.0540
     11 C          62.8372   83.4445   11.6512 C.ar    1  UNL1        0.0313
     12 C          62.8133   84.7483   10.9099 C.ar    1  UNL1        0.0651
     13 C          62.9987   84.9257    9.4320 C.3     1  UNL1        0.0523
     14 C          64.0559   90.7407   12.8081 C.ar    1  UNL1        0.0400
     15 C          63.9973   90.7796   14.3065 C.ar    1  UNL1        0.1006
     16 N          64.8385   91.7633   15.0646 N.ar    1  UNL1       -0.2391
     17 C          65.7383   92.7080   14.3244 C.ar    1  UNL1        0.1356
     18 C          65.7969   92.6691   12.8261 C.ar    1  UNL1        0.1579
     19 C          64.9556   91.6854   12.0679 C.ar    1  UNL1        0.0416
     20 O          66.6966   93.6138   12.0858 O.3     1  UNL1       -0.4699
     21 C          66.1204   94.8195   11.4045 C.3     1  UNL1        0.2525
     22 C          59.9760   88.7783    8.1293 C.2     1  UNL1        0.2272
     23 O          60.3991   87.3395    8.1620 O.2     1  UNL1       -0.2747
     24 N          60.4931   89.7357    9.1617 N.am    1  UNL1       -0.2692
     25 H          60.2154   90.6800    9.1402 H       1  UNL1        0.1563
     26 C          59.5533   90.0871    5.9251 C.3     1  UNL1        0.0101
     27 C          59.0358   89.2595    7.0642 C.3     1  UNL1        0.0854
@<TRIPOS>BOND
     1    26    27    1
     2    27    22    1
     3    22    23    2
     4    22    24   am
     5    24     1    1
     6     1     2   ar
     7     2     3   ar
     8     3    14    1
     9    14    15   ar
    10    15    16   ar
    11    16    17   ar
    12    17    18   ar
    13    18    20    1
    14    20    21    1
    15    18    19   ar
    16     3     4   ar
    17     4     5   ar
    18     5     7    1
    19     7     8   ar
    20     8     9   ar
    21     9    10    1
    22     9    11   ar
    23    11    12   ar
    24    12    13    1
    25     5     6   ar
    26     6     1   ar
    27    19    14   ar
    28    12     7   ar
    29    24    25    1
@<TRIPOS>MOLECULE
*****
 27 29 0 0 0
SMALL
GASTEIGER

@<TRIPOS>ATOM
      1 C          63.8174   89.0803   13.9366 C.ar    1  UNL1        0.1388
      2 C          64.5620   90.3565   13.6779 C.ar    1  UNL1        0.0538
      3 C          64.4077   91.0615   12.3630 C.ar    1  UNL1        0.0888
      4 N          63.5088   90.4904   11.3067 N.ar    1  UNL1       -0.2098
      5 C          62.7642   89.2142   11.5653 C.ar    1  UNL1        0.2539
      6 N          62.9185   88.5092   12.8803 N.ar    1  UNL1       -0.1948
      7 N          61.8653   88.6430   10.5090 N.ar    1  UNL1       -0.2008
      8 N          62.1229   87.4000    9.7098 N.ar    1  UNL1       -0.1673
      9 C          60.9679   87.2033    8.7733 C.ar    1  UNL1        0.0806
     10 C          60.8117   86.0821    7.7893 C.3     1  UNL1        0.0540
     11 C          59.9963   88.3248    8.9937 C.ar    1  UNL1        0.0313
     12 C          60.5510   89.2146   10.0663 C.ar    1  UNL1        0.0651
     13 C          59.9048   90.4576   10.6023 C.3     1  UNL1        0.0523
     14 C          65.1523   92.3378   12.1043 C.ar    1  UNL1        0.0400
     15 C          65.7155   93.1231   13.2515 C.ar    1  UNL1        0.1006
     16 N          66.4601   94.3993   12.9930 N.ar    1  UNL1       -0.2391
     17 C          66.6416   94.8902   11.5872 C.ar    1  UNL1        0.1356
     18 C          66.0784   94.1048   10.4400 C.ar    1  UNL1        0.1579
     19 C          65.3338   92.8285   10.6986 C.ar    1  UNL1        0.0416
     20 O          66.2598   94.5956    9.0342 O.3     1  UNL1       -0.4699
     21 C          67.5155   95.3200    8.6490 C.3     1  UNL1        0.2525
     22 C          62.9350   88.5487   16.3217 C.2     1  UNL1        0.2272
     23 O          61.7441   89.4272   16.0769 O.2     1  UNL1       -0.2747
     24 N          63.9717   88.3753   15.2515 N.am    1  UNL1       -0.2692
     25 H          64.7533   87.7987   15.4122 H       1  UNL1        0.1563
     26 C          62.6485   86.4169   17.7789 C.3     1  UNL1        0.0101
     27 C          63.0893   87.8436   17.6366 C.3     1  UNL1        0.0854
@<TRIPOS>BOND
     1    26    27    1
     2    27    22    1
     3    22    23    2
     4    22    24   am
     5    24     1    1
     6     1     2   ar
     7     2     3   ar
     8     3    14    1
     9    14    15   ar
    10    15    16   ar
    11    16    17   ar
    12    17    18   ar
    13    18    20    1
    14    20    21    1
    15    18    19   ar
    16     3     4   ar
    17     4     5   ar
    18     5     7    1
    19     7     8   ar
    20     8     9   ar
    21     9    10    1
    22     9    11   ar
    23    11    12   ar
    24    12    13    1
    25     5     6   ar
    26     6     1   ar
    27    19    14   ar
    28    12     7   ar
    29    24    25    1
@<TRIPOS>MOLECULE
*****
 27 29 0 0 0
SMALL
GASTEIGER

@<TRIPOS>ATOM
      1 C          63.7920   86.3492   13.4664 C.ar    1  UNL1        0.1388
      2 C          64.2473   87.5312   14.2698 C.ar    1  UNL1        0.0538
      3 C          63.8235   88.9148   13.8746 C.ar    1  UNL1        0.0888
      4 N          62.9444   89.1163   12.6760 N.ar    1  UNL1       -0.2098
      5 C          62.4891   87.9343   11.8727 C.ar    1  UNL1        0.2539
      6 N          62.9129   86.5507   12.2679 N.ar    1  UNL1       -0.1948
      7 N          61.6100   88.1357   10.6741 N.ar    1  UNL1       -0.2008
      8 N          60.6924   87.1133   10.0718 N.ar    1  UNL1       -0.1673
      9 C          60.0094   87.7406    8.8928 C.ar    1  UNL1        0.0806
     10 C          59.0070   87.0747    7.9974 C.3     1  UNL1        0.0540
     11 C          60.5048   89.1508    8.7665 C.ar    1  UNL1        0.0313
     12 C          61.4940   89.3950    9.8673 C.ar    1  UNL1        0.0651
     13 C          62.2368   90.6739   10.1175 C.3     1  UNL1        0.0523
     14 C          64.2788   90.0969   14.6780 C.ar    1  UNL1        0.0400
     15 C          63.4891   90.5400   15.8739 C.ar    1  UNL1        0.1006
     16 N          63.9444   91.7220   16.6773 N.ar    1  UNL1       -0.2391
     17 C          65.1895   92.4609   16.2849 C.ar    1  UNL1        0.1356
     18 C          65.9791   92.0178   15.0890 C.ar    1  UNL1        0.1579
     19 C          65.5238   90.8357   14.2856 C.ar    1  UNL1        0.0416
     20 O          67.2241   92.7567   14.6966 O.3     1  UNL1       -0.4699
     21 C          68.1535   93.2747   15.7539 C.3     1  UNL1        0.2525
     22 C          63.2491   84.0559   14.5601 C.2     1  UNL1        0.2272
     23 O          61.8586   84.5298   14.8634 O.2     1  UNL1       -0.2747
     24 N          64.2158   84.9656   13.8616 N.am    1  UNL1       -0.2692
     25 H          65.1284   84.6546   13.6625 H       1  UNL1        0.1563
     26 C          63.5327   81.5386   13.9831 C.3     1  UNL1        0.0101
     27 C          63.6729   82.6724   14.9553 C.3     1  UNL1        0.0854
@<TRIPOS>BOND
     1    26    27    1
     2    27    22    1
     3    22    23    2
     4    22    24   am
     5    24     1    1
     6     1     2   ar
     7     2     3   ar
     8     3    14    1
     9    14    15   ar
    10    15    16   ar
    11    16    17   ar
    12    17    18   ar
    13    18    20    1
    14    20    21    1
    15    18    19   ar
    16     3     4   ar
    17     4     5   ar
    18     5     7    1
    19     7     8   ar
    20     8     9   ar
    21     9    10    1
    22     9    11   ar
    23    11    12   ar
    24    12    13    1
    25     5     6   ar
    26     6     1   ar
    27    19    14   ar
    28    12     7   ar
    29    24    25    1
@<TRIPOS>MOLECULE
*****
 27 29 0 0 0
SMALL
GASTEIGER

@<TRIPOS>ATOM
      1 C          61.5369   87.0521   10.0760 C.ar    1  UNL1        0.1388
      2 C          61.7146   85.7308   10.7635 C.ar    1  UNL1        0.0538
      3 C          62.5103   85.6466   12.0323 C.ar    1  UNL1        0.0888
      4 N          63.1282   86.8835   12.6136 N.ar    1  UNL1       -0.2098
      5 C          62.9504   88.2048   11.9261 C.ar    1  UNL1        0.2539
      6 N          62.1548   88.2891   10.6574 N.ar    1  UNL1       -0.1948
      7 N          63.5684   89.4419   12.5075 N.ar    1  UNL1       -0.2008
      8 N          64.1804   89.5643   13.8715 N.ar    1  UNL1       -0.1673
      9 C          64.6730   90.9717   14.0339 C.ar    1  UNL1        0.0806
     10 C          65.3537   91.5332   15.2470 C.3     1  UNL1        0.0540
     11 C          64.3655   91.7192   12.7702 C.ar    1  UNL1        0.0313
     12 C          63.6828   90.7737   11.8269 C.ar    1  UNL1        0.0651
     13 C          63.1995   91.1023   10.4455 C.3     1  UNL1        0.0523
     14 C          62.6880   84.3252   12.7197 C.ar    1  UNL1        0.0400
     15 C          62.8993   84.2744   14.2039 C.ar    1  UNL1        0.1006
     16 N          63.0771   82.9531   14.8913 N.ar    1  UNL1       -0.2391
     17 C          63.0434   81.6826   14.0946 C.ar    1  UNL1        0.1356
     18 C          62.8321   81.7334   12.6105 C.ar    1  UNL1        0.1579
     19 C          62.6544   83.0548   11.9230 C.ar    1  UNL1        0.0416
     20 O          62.7985   80.4630   11.8138 O.3     1  UNL1       -0.4699
     21 C          63.1421   80.4840   10.3538 C.3     1  UNL1        0.2525
     22 C          59.9748   88.3846    8.4841 C.2     1  UNL1        0.2272
     23 O          60.0041   89.5487    9.4297 O.2     1  UNL1       -0.2747
     24 N          60.7412   87.1364    8.8073 N.am    1  UNL1       -0.2692
     25 H          60.7220   86.3724    8.1866 H       1  UNL1        0.1563
     26 C          59.2941   89.6795    6.3369 C.3     1  UNL1        0.0101
     27 C          59.1791   88.4689    7.2153 C.3     1  UNL1        0.0854
@<TRIPOS>BOND
     1    26    27    1
     2    27    22    1
     3    22    23    2
     4    22    24   am
     5    24     1    1
     6     1     2   ar
     7     2     3   ar
     8     3    14    1
     9    14    15   ar
    10    15    16   ar
    11    16    17   ar
    12    17    18   ar
    13    18    20    1
    14    20    21    1
    15    18    19   ar
    16     3     4   ar
    17     4     5   ar
    18     5     7    1
    19     7     8   ar
    20     8     9   ar
    21     9    10    1
    22     9    11   ar
    23    11    12   ar
    24    12    13    1
    25     5     6   ar
    26     6     1   ar
    27    19    14   ar
    28    12     7   ar
    29    24    25    1
@<TRIPOS>MOLECULE
*****
 27 29 0 0 0
SMALL
GASTEIGER

@<TRIPOS>ATOM
      1 C          61.3866   87.8185   11.0303 C.ar    1  UNL1        0.1388
      2 C          62.1943   88.9900   11.5049 C.ar    1  UNL1        0.0538
      3 C          63.2869   88.7887   12.5127 C.ar    1  UNL1        0.0888
      4 N          63.5719   87.4160   13.0459 N.ar    1  UNL1       -0.2098
      5 C          62.7642   86.2445   12.5713 C.ar    1  UNL1        0.2539
      6 N          61.6716   86.4458   11.5635 N.ar    1  UNL1       -0.1948
      7 N          63.0492   84.8717   13.1045 N.ar    1  UNL1       -0.2008
      8 N          62.7708   83.5770   12.4000 N.ar    1  UNL1       -0.1673
      9 C          63.2120   82.4577   13.2958 C.ar    1  UNL1        0.0806
     10 C          63.1186   80.9926   12.9877 C.3     1  UNL1        0.0540
     11 C          63.7631   83.0607   14.5539 C.ar    1  UNL1        0.0313
     12 C          63.6625   84.5526   14.4356 C.ar    1  UNL1        0.0651
     13 C          64.0986   85.5502   15.4674 C.3     1  UNL1        0.0523
     14 C          64.0946   89.9603   12.9873 C.ar    1  UNL1        0.0400
     15 C          64.6485   89.9740   14.3812 C.ar    1  UNL1        0.1006
     16 N          65.4561   91.1455   14.8559 N.ar    1  UNL1       -0.2391
     17 C          65.7100   92.3033   13.9365 C.ar    1  UNL1        0.1356
     18 C          65.1561   92.2896   12.5426 C.ar    1  UNL1        0.1579
     19 C          64.3484   91.1180   12.0680 C.ar    1  UNL1        0.0416
     20 O          65.4100   93.4473   11.6233 O.3     1  UNL1       -0.4699
     21 C          66.5315   93.3838   10.6293 C.3     1  UNL1        0.2525
     22 C          60.3354   87.2862    8.7148 C.2     1  UNL1        0.2272
     23 O          61.4694   86.3513    8.4149 O.2     1  UNL1       -0.2747
     24 N          60.2940   88.0198   10.0225 N.am    1  UNL1       -0.2692
     25 H          59.5497   88.6334   10.2193 H       1  UNL1        0.1563
     26 C          59.1135   88.8004    6.9931 C.3     1  UNL1        0.0101
     27 C          59.2427   87.4875    7.7070 C.3     1  UNL1        0.0854
@<TRIPOS>BOND
     1    26    27    1
     2    27    22    1
     3    22    23    2
     4    22    24   am
     5    24     1    1
     6     1     2   ar
     7     2     3   ar
     8     3    14    1
     9    14    15   ar
    10    15    16   ar
    11    16    17   ar
    12    17    18   ar
    13    18    20    1
    14    20    21    1
    15    18    19   ar
    16     3     4   ar
    17     4     5   ar
    18     5     7    1
    19     7     8   ar
    20     8     9   ar
    21     9    10    1
    22     9    11   ar
    23    11    12   ar
    24    12    13    1
    25     5     6   ar
    26     6     1   ar
    27    19    14   ar
    28    12     7   ar
    29    24    25    1
@<TRIPOS>MOLECULE
*****
 27 29 0 0 0
SMALL
GASTEIGER

@<TRIPOS>ATOM
      1 C          62.5340   88.0833   11.0698 C.ar    1  UNL1        0.1388
      2 C          62.6219   86.6765   11.5828 C.ar    1  UNL1        0.0538
      3 C          63.2685   86.4004   12.9079 C.ar    1  UNL1        0.0888
      4 N          63.8272   87.5311   13.7199 N.ar    1  UNL1       -0.2098
      5 C          63.7393   88.9378   13.2069 C.ar    1  UNL1        0.2539
      6 N          63.0927   89.2140   11.8819 N.ar    1  UNL1       -0.1948
      7 N          64.2980   90.0686   14.0189 N.ar    1  UNL1       -0.2008
      8 N          65.2669   91.1067   13.5355 N.ar    1  UNL1       -0.1673
      9 C          65.5537   92.0394   14.6747 C.ar    1  UNL1        0.0806
     10 C          66.4710   93.2255   14.6336 C.3     1  UNL1        0.0540
     11 C          64.7620   91.5777   15.8622 C.ar    1  UNL1        0.0313
     12 C          63.9860   90.3597   15.4569 C.ar    1  UNL1        0.0651
     13 C          63.0605   89.5713   16.3354 C.3     1  UNL1        0.0523
     14 C          63.3564   84.9935   13.4208 C.ar    1  UNL1        0.0400
     15 C          63.8337   84.7335   14.8189 C.ar    1  UNL1        0.1006
     16 N          63.9216   83.3267   15.3319 N.ar    1  UNL1       -0.2391
     17 C          63.5321   82.1799   14.4468 C.ar    1  UNL1        0.1356
     18 C          63.0548   82.4400   13.0488 C.ar    1  UNL1        0.1579
     19 C          62.9669   83.8468   12.5358 C.ar    1  UNL1        0.0416
     20 O          62.6653   81.2933   12.1637 O.3     1  UNL1       -0.4699
     21 C          62.4899   79.9222   12.7463 C.3     1  UNL1        0.2525
     22 C          60.4989   88.9241    9.6911 C.2     1  UNL1        0.2272
     23 O          59.7568   89.2126   10.9624 O.2     1  UNL1       -0.2747
     24 N          61.8874   88.3594    9.7448 N.am    1  UNL1       -0.2692
     25 H          62.3745   88.1701    8.9104 H       1  UNL1        0.1563
     26 C          59.2526   88.0754    7.5752 C.3     1  UNL1        0.0101
     27 C          59.8523   89.2002    8.3660 C.3     1  UNL1        0.0854
@<TRIPOS>BOND
     1    26    27    1
     2    27    22    1
     3    22    23    2
     4    22    24   am
     5    24     1    1
     6     1     2   ar
     7     2     3   ar
     8     3    14    1
     9    14    15   ar
    10    15    16   ar
    11    16    17   ar
    12    17    18   ar
    13    18    20    1
    14    20    21    1
    15    18    19   ar
    16     3     4   ar
    17     4     5   ar
    18     5     7    1
    19     7     8   ar
    20     8     9   ar
    21     9    10    1
    22     9    11   ar
    23    11    12   ar
    24    12    13    1
    25     5     6   ar
    26     6     1   ar
    27    19    14   ar
    28    12     7   ar
    29    24    25    1
@<TRIPOS>MOLECULE
*****
 27 29 0 0 0
SMALL
GASTEIGER

@<TRIPOS>ATOM
      1 C          61.4066   87.7084   11.0186 C.ar    1  UNL1        0.1388
      2 C          62.1664   88.9609   11.3412 C.ar    1  UNL1        0.0538
      3 C          63.2864   88.9229   12.3383 C.ar    1  UNL1        0.0888
      4 N          63.6466   87.6324   13.0128 N.ar    1  UNL1       -0.2098
      5 C          62.8868   86.3800   12.6901 C.ar    1  UNL1        0.2539
      6 N          61.7669   86.4180   11.6930 N.ar    1  UNL1       -0.1948
      7 N          63.2471   85.0895   13.3646 N.ar    1  UNL1       -0.2008
      8 N          63.1930   83.7251   12.7437 N.ar    1  UNL1       -0.1673
      9 C          63.6371   82.7291   13.7737 C.ar    1  UNL1        0.0806
     10 C          63.7353   81.2449   13.5802 C.3     1  UNL1        0.0540
     11 C          63.9656   83.4780   15.0312 C.ar    1  UNL1        0.0313
     12 C          63.7246   84.9368   14.7783 C.ar    1  UNL1        0.0651
     13 C          63.9258   86.0477   15.7659 C.3     1  UNL1        0.0523
     14 C          64.0461   90.1754   12.6609 C.ar    1  UNL1        0.0400
     15 C          64.1097   91.2924   11.6618 C.ar    1  UNL1        0.1006
     16 N          64.8694   92.5449   11.9843 N.ar    1  UNL1       -0.2391
     17 C          65.5656   92.6804   13.3061 C.ar    1  UNL1        0.1356
     18 C          65.5021   91.5634   14.3052 C.ar    1  UNL1        0.1579
     19 C          64.7423   90.3109   13.9826 C.ar    1  UNL1        0.0416
     20 O          66.1982   91.6989   15.6269 O.3     1  UNL1       -0.4699
     21 C          67.0963   92.8723   15.8847 C.3     1  UNL1        0.2525
     22 C          60.3763   86.9373    8.7616 C.2     1  UNL1        0.2272
     23 O          61.5860   86.0901    8.4989 O.2     1  UNL1       -0.2747
     24 N          60.2867   87.7465   10.0215 N.am    1  UNL1       -0.2692
     25 H          59.4927   88.3025   10.1939 H       1  UNL1        0.1563
     26 C          58.8152   88.2852    7.1817 C.3     1  UNL1        0.0101
     27 C          59.2563   86.9753    7.7645 C.3     1  UNL1        0.0854
@<TRIPOS>BOND
     1    26    27    1
     2    27    22    1
     3    22    23    2
     4    22    24   am
     5    24     1    1
     6     1     2   ar
     7     2     3   ar
     8     3    14    1
     9    14    15   ar
    10    15    16   ar
    11    16    17   ar
    12    17    18   ar
    13    18    20    1
    14    20    21    1
    15    18    19   ar
    16     3     4   ar
    17     4     5   ar
    18     5     7    1
    19     7     8   ar
    20     8     9   ar
    21     9    10    1
    22     9    11   ar
    23    11    12   ar
    24    12    13    1
    25     5     6   ar
    26     6     1   ar
    27    19    14   ar
    28    12     7   ar
    29    24    25    1
@<TRIPOS>MOLECULE
*****
 27 29 0 0 0
SMALL
GASTEIGER

@<TRIPOS>ATOM
      1 C          61.3361   88.9832   10.2946 C.ar    1  UNL1        0.1388
      2 C          61.4882   87.5083   10.5209 C.ar    1  UNL1        0.0538
      3 C          62.4788   87.0021   11.5272 C.ar    1  UNL1        0.0888
      4 N          63.3172   87.9710   12.3072 N.ar    1  UNL1       -0.2098
      5 C          63.1650   89.4459   12.0808 C.ar    1  UNL1        0.2539
      6 N          62.1745   89.9521   11.0745 N.ar    1  UNL1       -0.1948
      7 N          64.0034   90.4149   12.8608 N.ar    1  UNL1       -0.2008
      8 N          64.7421   91.5932   12.2986 N.ar    1  UNL1       -0.1673
      9 C          65.4456   92.2822   13.4302 C.ar    1  UNL1        0.0806
     10 C          66.3024   93.5084   13.3196 C.3     1  UNL1        0.0540
     11 C          65.1417   91.5296   14.6917 C.ar    1  UNL1        0.0313
     12 C          64.2504   90.3756   14.3398 C.ar    1  UNL1        0.0651
     13 C          63.7024   89.3605   15.2986 C.3     1  UNL1        0.0523
     14 C          62.6309   85.5271   11.7536 C.ar    1  UNL1        0.0400
     15 C          62.8779   84.6115   10.5914 C.ar    1  UNL1        0.1006
     16 N          63.0300   83.1366   10.8176 N.ar    1  UNL1       -0.2391
     17 C          62.9351   82.5770   12.2062 C.ar    1  UNL1        0.1356
     18 C          62.6881   83.4926   13.3684 C.ar    1  UNL1        0.1579
     19 C          62.5360   84.9677   13.1421 C.ar    1  UNL1        0.0416
     20 O          62.5932   82.9332   14.7569 O.3     1  UNL1       -0.4699
     21 C          62.7081   83.8451   15.9423 C.3     1  UNL1        0.2525
     22 C          59.9392   88.6219    8.1340 C.2     1  UNL1        0.2272
     23 O          60.5234   87.2482    7.9860 O.2     1  UNL1       -0.2747
     24 N          60.3455   89.4893    9.2882 N.am    1  UNL1       -0.2692
     25 H          59.9621   90.3909    9.3854 H       1  UNL1        0.1563
     26 C          59.4115   89.9784    5.9819 C.3     1  UNL1        0.0101
     27 C          58.9487   89.1280    7.1277 C.3     1  UNL1        0.0854
@<TRIPOS>BOND
     1    26    27    1
     2    27    22    1
     3    22    23    2
     4    22    24   am
     5    24     1    1
     6     1     2   ar
     7     2     3   ar
     8     3    14    1
     9    14    15   ar
    10    15    16   ar
    11    16    17   ar
    12    17    18   ar
    13    18    20    1
    14    20    21    1
    15    18    19   ar
    16     3     4   ar
    17     4     5   ar
    18     5     7    1
    19     7     8   ar
    20     8     9   ar
    21     9    10    1
    22     9    11   ar
    23    11    12   ar
    24    12    13    1
    25     5     6   ar
    26     6     1   ar
    27    19    14   ar
    28    12     7   ar
    29    24    25    1
