@<TRIPOS>MOLECULE
*****
 43 46 0 0 0
SMALL
GASTEIGER

@<TRIPOS>ATOM
      1 C          63.2610   88.0544   12.0978 C.3     1  UNL1        0.0780
      2 C          62.3276   86.8807   12.0651 C.3     1  UNL1        0.0899
      3 C          61.0014   87.0452    9.8370 C.2     1  UNL1        0.4014
      4 O          62.2888   87.0077    9.0680 O.2     1  UNL1       -0.2264
      5 N          61.0208   86.9817   11.3355 N.am    1  UNL1       -0.2711
      6 H          60.1759   87.0063   11.8402 H       1  UNL1        0.1527
      7 O          59.6947   87.1462    9.1075 O.3     1  UNL1       -0.4419
      8 C          60.0471   89.2295    8.9186 C.3     1  UNL1        0.0437
      9 C          59.5238   88.1558    8.0113 C.3     1  UNL1        0.1378
     10 C          59.0004   87.0820    7.1041 C.3     1  UNL1        0.0437
     11 C          59.3528   89.1653    6.9152 C.3     1  UNL1        0.0437
     12 C          62.7009   85.6059   12.7620 C.3     1  UNL1        0.0469
     13 C          63.0201   84.3788   11.9606 C.ar    1  UNL1       -0.0205
     14 C          63.6129   84.5118   10.5892 C.ar    1  UNL1       -0.0042
     15 C          63.9321   83.2846    9.7878 C.ar    1  UNL1       -0.0003
     16 C          63.6583   81.9244   10.3578 C.ar    1  UNL1       -0.0000
     17 C          63.0654   81.7914   11.7293 C.ar    1  UNL1       -0.0003
     18 C          62.7917   80.4312   12.2993 C.ar    1  UNL1       -0.0000
     19 C          62.1988   80.2982   13.6707 C.ar    1  UNL1       -0.0000
     20 C          61.8797   81.5254   14.4721 C.ar    1  UNL1       -0.0000
     21 C          62.1534   82.8855   13.9020 C.ar    1  UNL1       -0.0003
     22 C          62.7463   83.0185   12.5307 C.ar    1  UNL1       -0.0039
     23 S          62.8522   89.3186   12.7942 S.3     1  UNL1       -0.1298
     24 C          63.8747   90.1354   13.5272 C.3     1  UNL1        0.1281
     25 C          64.6869   91.1582   12.7893 C.2     1  UNL1        0.2325
     26 O          64.2646   91.6068   11.4217 O.2     1  UNL1       -0.2742
     27 N          65.9212   91.7323   13.4192 N.am    1  UNL1       -0.3033
     28 H          66.1983   91.4379   14.3168 H       1  UNL1        0.1495
     29 C          66.7333   92.7551   12.6814 C.3     1  UNL1        0.0941
     30 C          66.1037   94.0485   12.2565 C.3     1  UNL1        0.0492
     31 C          66.5315   94.7066   10.9782 C.ar    1  UNL1       -0.0013
     32 C          67.0454   93.8739    9.8414 C.ar    1  UNL1       -0.0011
     33 C          67.4731   94.5320    8.5632 C.ar    1  UNL1        0.0204
     34 C          67.3870   96.0229    8.4218 C.ar    1  UNL1        0.0989
     35 N          66.8731   96.8556    9.5587 N.ar    1  UNL1       -0.2426
     36 C          66.4454   96.1975   10.8369 C.ar    1  UNL1        0.0946
     37 C          64.0851   89.9294   14.9980 C.3     1  UNL1        0.0463
     38 C          63.8637   88.5757   15.6050 C.ar    1  UNL1       -0.0208
     39 C          64.5430   87.3721   15.0219 C.ar    1  UNL1       -0.0042
     40 C          64.3216   86.0184   15.6289 C.ar    1  UNL1       -0.0003
     41 C          63.4210   85.8682   16.8190 C.ar    1  UNL1       -0.0000
     42 C          62.7417   87.0718   17.4020 C.ar    1  UNL1       -0.0003
     43 C          62.9631   88.4255   16.7950 C.ar    1  UNL1       -0.0042
@<TRIPOS>BOND
     1     8     9    1
     2     9    10    1
     3     9    11    1
     4     9     7    1
     5     7     3    1
     6     3     4    2
     7     3     5   am
     8     5     2    1
     9     2     1    1
    10     1    23    1
    11    23    24    1
    12    24    37    1
    13    37    38    1
    14    38    39   ar
    15    39    40   ar
    16    40    41   ar
    17    41    42   ar
    18    42    43   ar
    19    24    25    1
    20    25    26    2
    21    25    27   am
    22    27    29    1
    23    29    30    1
    24    30    31    1
    25    31    32   ar
    26    32    33   ar
    27    33    34   ar
    28    34    35   ar
    29    35    36   ar
    30     2    12    1
    31    12    13    1
    32    13    14   ar
    33    14    15   ar
    34    15    16   ar
    35    16    17   ar
    36    17    18   ar
    37    18    19   ar
    38    19    20   ar
    39    20    21   ar
    40    21    22   ar
    41    43    38   ar
    42    36    31   ar
    43    22    13   ar
    44    22    17   ar
    45     5     6    1
    46    27    28    1
@<TRIPOS>MOLECULE
*****
 43 46 0 0 0
SMALL
GASTEIGER

@<TRIPOS>ATOM
      1 C          61.4737   89.6090   11.9561 C.3     1  UNL1        0.0780
      2 C          62.7795   89.8299   12.6603 C.3     1  UNL1        0.0899
      3 C          63.8246   88.3918   14.5550 C.2     1  UNL1        0.4014
      4 O          63.2179   89.3026   15.5809 O.2     1  UNL1       -0.2264
      5 N          63.6054   88.6554   13.0948 N.am    1  UNL1       -0.2711
      6 H          64.0036   88.0576   12.4215 H       1  UNL1        0.1527
      7 O          64.6504   87.2174   14.9894 O.3     1  UNL1       -0.4419
      8 C          63.3951   86.4874   16.5358 C.3     1  UNL1        0.0437
      9 C          63.9888   85.9046   15.2878 C.3     1  UNL1        0.1378
     10 C          64.5826   85.3217   14.0397 C.3     1  UNL1        0.0437
     11 C          63.3273   84.5918   15.5861 C.3     1  UNL1        0.0437
     12 C          63.2596   91.2251   12.9301 C.3     1  UNL1        0.0469
     13 C          64.5668   91.6916   12.3614 C.ar    1  UNL1       -0.0205
     14 C          64.6875   91.9758   10.8936 C.ar    1  UNL1       -0.0042
     15 C          65.9947   92.4424   10.3249 C.ar    1  UNL1       -0.0003
     16 C          67.1814   92.6247   11.2241 C.ar    1  UNL1       -0.0000
     17 C          67.0608   92.3404   12.6920 C.ar    1  UNL1       -0.0003
     18 C          68.2475   92.5227   13.5912 C.ar    1  UNL1       -0.0000
     19 C          68.1268   92.2385   15.0591 C.ar    1  UNL1       -0.0000
     20 C          66.8196   91.7720   15.6277 C.ar    1  UNL1       -0.0000
     21 C          65.6329   91.5897   14.7285 C.ar    1  UNL1       -0.0003
     22 C          65.7535   91.8739   13.2607 C.ar    1  UNL1       -0.0039
     23 S          61.4546   89.3226   10.4838 S.3     1  UNL1       -0.1298
     24 C          60.7550   88.1007    9.9664 C.3     1  UNL1        0.1281
     25 C          60.0049   88.1589    8.6687 C.2     1  UNL1        0.2325
     26 O          59.1725   86.9906    8.2305 O.2     1  UNL1       -0.2742
     27 N          60.0872   89.3855    7.8092 N.am    1  UNL1       -0.3033
     28 H          60.6336   90.1524    8.0969 H       1  UNL1        0.1495
     29 C          59.3372   89.4438    6.5116 C.3     1  UNL1        0.0941
     30 C          58.8882   90.7660    5.9635 C.3     1  UNL1        0.0492
     31 C          59.6636   91.4228    4.8601 C.ar    1  UNL1       -0.0013
     32 C          61.1041   91.0668    4.6409 C.ar    1  UNL1       -0.0011
     33 C          61.8794   91.7235    3.5375 C.ar    1  UNL1        0.0204
     34 C          61.2142   92.7363    2.6534 C.ar    1  UNL1        0.0989
     35 N          59.7737   93.0923    2.8726 N.ar    1  UNL1       -0.2426
     36 C          58.9984   92.4356    3.9759 C.ar    1  UNL1        0.0946
     37 C          60.8055   86.8207   10.7467 C.3     1  UNL1        0.0463
     38 C          61.8202   85.7713   10.4013 C.ar    1  UNL1       -0.0208
     39 C          62.2444   84.7695   11.4340 C.ar    1  UNL1       -0.0042
     40 C          63.2590   83.7201   11.0886 C.ar    1  UNL1       -0.0003
     41 C          63.8495   83.6725    9.7105 C.ar    1  UNL1       -0.0000
     42 C          63.4252   84.6743    8.6779 C.ar    1  UNL1       -0.0003
     43 C          62.4106   85.7236    9.0232 C.ar    1  UNL1       -0.0042
@<TRIPOS>BOND
     1     8     9    1
     2     9    10    1
     3     9    11    1
     4     9     7    1
     5     7     3    1
     6     3     4    2
     7     3     5   am
     8     5     2    1
     9     2     1    1
    10     1    23    1
    11    23    24    1
    12    24    37    1
    13    37    38    1
    14    38    39   ar
    15    39    40   ar
    16    40    41   ar
    17    41    42   ar
    18    42    43   ar
    19    24    25    1
    20    25    26    2
    21    25    27   am
    22    27    29    1
    23    29    30    1
    24    30    31    1
    25    31    32   ar
    26    32    33   ar
    27    33    34   ar
    28    34    35   ar
    29    35    36   ar
    30     2    12    1
    31    12    13    1
    32    13    14   ar
    33    14    15   ar
    34    15    16   ar
    35    16    17   ar
    36    17    18   ar
    37    18    19   ar
    38    19    20   ar
    39    20    21   ar
    40    21    22   ar
    41    43    38   ar
    42    36    31   ar
    43    22    13   ar
    44    22    17   ar
    45     5     6    1
    46    27    28    1
@<TRIPOS>MOLECULE
*****
 43 46 0 0 0
SMALL
GASTEIGER

@<TRIPOS>ATOM
      1 C          62.7494   85.7930   12.2913 C.3     1  UNL1        0.0780
      2 C          63.5931   85.1975   13.3792 C.3     1  UNL1        0.0899
      3 C          62.5576   83.1670   14.6261 C.2     1  UNL1        0.4014
      4 O          61.6181   84.0883   15.3462 O.2     1  UNL1       -0.2264
      5 N          63.5451   83.7216   13.6427 N.am    1  UNL1       -0.2711
      6 H          64.1618   83.1169   13.1701 H       1  UNL1        0.1527
      7 O          62.5097   81.6911   14.8896 O.3     1  UNL1       -0.4419
      8 C          60.9503   80.7103   13.8376 C.3     1  UNL1        0.0437
      9 C          62.4472   80.7262   13.7427 C.3     1  UNL1        0.1378
     10 C          63.9440   80.7420   13.6479 C.3     1  UNL1        0.0437
     11 C          62.3847   79.7613   12.5960 C.3     1  UNL1        0.0437
     12 C          64.4847   86.0780   14.2037 C.3     1  UNL1        0.0469
     13 C          63.9382   86.7763   15.4136 C.ar    1  UNL1       -0.0205
     14 C          63.3757   85.9764   16.5510 C.ar    1  UNL1       -0.0042
     15 C          62.8292   86.6747   17.7609 C.ar    1  UNL1       -0.0003
     16 C          62.8451   88.1728   17.8332 C.ar    1  UNL1       -0.0000
     17 C          63.4076   88.9728   16.6957 C.ar    1  UNL1       -0.0003
     18 C          63.4234   90.4709   16.7681 C.ar    1  UNL1       -0.0000
     19 C          63.9859   91.2708   15.6306 C.ar    1  UNL1       -0.0000
     20 C          64.5324   90.5725   14.4208 C.ar    1  UNL1       -0.0000
     21 C          64.5165   89.0743   14.3484 C.ar    1  UNL1       -0.0003
     22 C          63.9541   88.2745   15.4859 C.ar    1  UNL1       -0.0039
     23 S          62.7863   87.2710   12.0376 S.3     1  UNL1       -0.1298
     24 C          61.9965   87.8574   10.9051 C.3     1  UNL1        0.1281
     25 C          62.2851   89.2515   10.4324 C.2     1  UNL1        0.2325
     26 O          61.4603   89.8574    9.3359 O.2     1  UNL1       -0.2742
     27 N          63.3986   90.0395   11.0562 N.am    1  UNL1       -0.3033
     28 H          63.9400   89.6418   11.7759 H       1  UNL1        0.1495
     29 C          63.6872   91.4335   10.5836 C.3     1  UNL1        0.0941
     30 C          64.6110   92.3158   11.3697 C.3     1  UNL1        0.0492
     31 C          65.7181   93.0514   10.6742 C.ar    1  UNL1       -0.0013
     32 C          66.8926   92.2958   10.1270 C.ar    1  UNL1       -0.0011
     33 C          67.9995   93.0314    9.4316 C.ar    1  UNL1        0.0204
     34 C          67.9319   94.5225    9.2834 C.ar    1  UNL1        0.0989
     35 N          66.7574   95.2781    9.8307 N.ar    1  UNL1       -0.2426
     36 C          65.6504   94.5425   10.5261 C.ar    1  UNL1        0.0946
     37 C          60.9183   87.0499   10.2454 C.3     1  UNL1        0.0463
     38 C          61.2226   86.2641    9.0045 C.ar    1  UNL1       -0.0208
     39 C          62.5996   85.7107    8.7861 C.ar    1  UNL1       -0.0042
     40 C          62.9039   84.9249    7.5452 C.ar    1  UNL1       -0.0003
     41 C          61.8314   84.6924    6.5227 C.ar    1  UNL1       -0.0000
     42 C          60.4544   85.2458    6.7412 C.ar    1  UNL1       -0.0003
     43 C          60.1500   86.0316    7.9821 C.ar    1  UNL1       -0.0042
@<TRIPOS>BOND
     1     8     9    1
     2     9    10    1
     3     9    11    1
     4     9     7    1
     5     7     3    1
     6     3     4    2
     7     3     5   am
     8     5     2    1
     9     2     1    1
    10     1    23    1
    11    23    24    1
    12    24    37    1
    13    37    38    1
    14    38    39   ar
    15    39    40   ar
    16    40    41   ar
    17    41    42   ar
    18    42    43   ar
    19    24    25    1
    20    25    26    2
    21    25    27   am
    22    27    29    1
    23    29    30    1
    24    30    31    1
    25    31    32   ar
    26    32    33   ar
    27    33    34   ar
    28    34    35   ar
    29    35    36   ar
    30     2    12    1
    31    12    13    1
    32    13    14   ar
    33    14    15   ar
    34    15    16   ar
    35    16    17   ar
    36    17    18   ar
    37    18    19   ar
    38    19    20   ar
    39    20    21   ar
    40    21    22   ar
    41    43    38   ar
    42    36    31   ar
    43    22    13   ar
    44    22    17   ar
    45     5     6    1
    46    27    28    1
@<TRIPOS>MOLECULE
*****
 43 46 0 0 0
SMALL
GASTEIGER

@<TRIPOS>ATOM
      1 C          61.9530   90.3049   11.9211 C.3     1  UNL1        0.0780
      2 C          63.4461   90.3619   12.0529 C.3     1  UNL1        0.0899
      3 C          65.0199   92.4177   12.2693 C.2     1  UNL1        0.4014
      4 O          65.0603   92.2302   13.7570 O.2     1  UNL1       -0.2264
      5 N          64.2129   91.4836   11.4173 N.am    1  UNL1       -0.2711
      6 H          64.1864   91.6067   10.4409 H       1  UNL1        0.1527
      7 O          65.7866   93.5393   11.6337 O.3     1  UNL1       -0.4419
      8 C          66.2322   94.2695    9.6924 C.3     1  UNL1        0.0437
      9 C          66.8353   93.2416   10.6033 C.3     1  UNL1        0.1378
     10 C          67.4384   92.2137   11.5141 C.3     1  UNL1        0.0437
     11 C          67.8839   92.9438    9.5729 C.3     1  UNL1        0.0437
     12 C          64.1725   89.2973   12.8203 C.3     1  UNL1        0.0469
     13 C          63.8217   89.0354   14.2550 C.ar    1  UNL1       -0.0205
     14 C          63.4765   90.1781   15.1633 C.ar    1  UNL1       -0.0042
     15 C          63.1258   89.9162   16.5980 C.ar    1  UNL1       -0.0003
     16 C          63.1202   88.5117   17.1244 C.ar    1  UNL1       -0.0000
     17 C          63.4653   87.3689   16.2161 C.ar    1  UNL1       -0.0003
     18 C          63.4597   85.9644   16.7425 C.ar    1  UNL1       -0.0000
     19 C          63.8049   84.8217   15.8342 C.ar    1  UNL1       -0.0000
     20 C          64.1556   85.0835   14.3995 C.ar    1  UNL1       -0.0000
     21 C          64.1613   86.4881   13.8731 C.ar    1  UNL1       -0.0003
     22 C          63.8161   87.6308   14.7814 C.ar    1  UNL1       -0.0039
     23 S          61.3264   90.0992   10.5738 S.3     1  UNL1       -0.1298
     24 C          60.8090   88.7456   10.1861 C.3     1  UNL1        0.1281
     25 C          60.0301   88.5762    8.9154 C.2     1  UNL1        0.2325
     26 O          59.1661   87.3656    8.7211 O.2     1  UNL1       -0.2742
     27 N          60.1153   89.6173    7.8389 N.am    1  UNL1       -0.3033
     28 H          60.6825   90.4119    7.9664 H       1  UNL1        0.1495
     29 C          59.3365   89.4479    6.5683 C.3     1  UNL1        0.0941
     30 C          58.7703   90.6486    5.8699 C.3     1  UNL1        0.0492
     31 C          59.5734   91.3508    4.8153 C.ar    1  UNL1       -0.0013
     32 C          61.0274   91.0267    4.6399 C.ar    1  UNL1       -0.0011
     33 C          61.8304   91.7289    3.5854 C.ar    1  UNL1        0.0204
     34 C          61.1794   92.7552    2.7063 C.ar    1  UNL1        0.0989
     35 N          59.7254   93.0794    2.8817 N.ar    1  UNL1       -0.2426
     36 C          58.9224   92.3772    3.9362 C.ar    1  UNL1        0.0946
     37 C          61.0706   87.5616   11.0690 C.3     1  UNL1        0.0463
     38 C          61.8703   86.4026   10.5520 C.ar    1  UNL1       -0.0208
     39 C          62.1420   85.2238   11.4389 C.ar    1  UNL1       -0.0042
     40 C          62.9417   84.0648   10.9220 C.ar    1  UNL1       -0.0003
     41 C          63.4696   84.0846    9.5181 C.ar    1  UNL1       -0.0000
     42 C          63.1978   85.2633    8.6312 C.ar    1  UNL1       -0.0003
     43 C          62.3981   86.4223    9.1482 C.ar    1  UNL1       -0.0042
@<TRIPOS>BOND
     1     8     9    1
     2     9    10    1
     3     9    11    1
     4     9     7    1
     5     7     3    1
     6     3     4    2
     7     3     5   am
     8     5     2    1
     9     2     1    1
    10     1    23    1
    11    23    24    1
    12    24    37    1
    13    37    38    1
    14    38    39   ar
    15    39    40   ar
    16    40    41   ar
    17    41    42   ar
    18    42    43   ar
    19    24    25    1
    20    25    26    2
    21    25    27   am
    22    27    29    1
    23    29    30    1
    24    30    31    1
    25    31    32   ar
    26    32    33   ar
    27    33    34   ar
    28    34    35   ar
    29    35    36   ar
    30     2    12    1
    31    12    13    1
    32    13    14   ar
    33    14    15   ar
    34    15    16   ar
    35    16    17   ar
    36    17    18   ar
    37    18    19   ar
    38    19    20   ar
    39    20    21   ar
    40    21    22   ar
    41    43    38   ar
    42    36    31   ar
    43    22    13   ar
    44    22    17   ar
    45     5     6    1
    46    27    28    1
@<TRIPOS>MOLECULE
*****
 43 46 0 0 0
SMALL
GASTEIGER

@<TRIPOS>ATOM
      1 C          62.4130   89.6937   12.8370 C.3     1  UNL1        0.0780
      2 C          63.4750   89.6143   13.8934 C.3     1  UNL1        0.0899
      3 C          63.6691   87.7294   15.6708 C.2     1  UNL1        0.4014
      4 O          62.7893   88.5137   16.5986 O.2     1  UNL1       -0.2264
      5 N          64.0120   88.2797   14.3182 N.am    1  UNL1       -0.2711
      6 H          64.5894   87.7649   13.7093 H       1  UNL1        0.1527
      7 O          64.2060   86.3948   16.0956 O.3     1  UNL1       -0.4419
      8 C          62.4243   85.3770   16.6340 C.3     1  UNL1        0.0437
      9 C          63.5266   85.1353   15.6459 C.3     1  UNL1        0.1378
     10 C          64.6289   84.8936   14.6577 C.3     1  UNL1        0.0437
     11 C          62.8473   83.8759   15.1961 C.3     1  UNL1        0.0437
     12 C          64.0001   90.8695   14.5248 C.3     1  UNL1        0.0469
     13 C          65.3969   91.3298   14.2298 C.ar    1  UNL1       -0.0205
     14 C          66.4620   91.2146   15.2797 C.ar    1  UNL1       -0.0042
     15 C          67.8588   91.6749   14.9847 C.ar    1  UNL1       -0.0003
     16 C          68.1906   92.2505   13.6399 C.ar    1  UNL1       -0.0000
     17 C          67.1255   92.3658   12.5899 C.ar    1  UNL1       -0.0003
     18 C          67.4572   92.9414   11.2451 C.ar    1  UNL1       -0.0000
     19 C          66.3921   93.0566   10.1952 C.ar    1  UNL1       -0.0000
     20 C          64.9953   92.5963   10.4902 C.ar    1  UNL1       -0.0000
     21 C          64.6636   92.0207   11.8350 C.ar    1  UNL1       -0.0003
     22 C          65.7286   91.9054   12.8849 C.ar    1  UNL1       -0.0039
     23 S          62.5769   88.9399   11.5506 S.3     1  UNL1       -0.1298
     24 C          61.3916   88.2774   10.9133 C.3     1  UNL1        0.1281
     25 C          60.5107   89.0536    9.9796 C.2     1  UNL1        0.2325
     26 O          60.0635   90.4374   10.3470 O.2     1  UNL1       -0.2742
     27 N          60.0770   88.4458    8.6786 N.am    1  UNL1       -0.3033
     28 H          60.3705   87.5376    8.4375 H       1  UNL1        0.1495
     29 C          59.1961   89.2219    7.7450 C.3     1  UNL1        0.0941
     30 C          59.4117   89.1336    6.2632 C.3     1  UNL1        0.0492
     31 C          59.4806   90.3853    5.4394 C.ar    1  UNL1       -0.0013
     32 C          60.7783   90.7991    4.8111 C.ar    1  UNL1       -0.0011
     33 C          60.8472   92.0507    3.9874 C.ar    1  UNL1        0.0204
     34 C          59.6185   92.8885    3.7919 C.ar    1  UNL1        0.0989
     35 N          58.3208   92.4747    4.4202 N.ar    1  UNL1       -0.2426
     36 C          58.2519   91.2231    5.2439 C.ar    1  UNL1        0.0946
     37 C          61.0872   86.8389   11.2096 C.3     1  UNL1        0.0463
     38 C          62.0070   85.7609   10.7178 C.ar    1  UNL1       -0.0208
     39 C          62.4890   84.6984   11.6605 C.ar    1  UNL1       -0.0042
     40 C          63.4088   83.6204   11.1687 C.ar    1  UNL1       -0.0003
     41 C          63.8466   83.6049    9.7341 C.ar    1  UNL1       -0.0000
     42 C          63.3646   84.6673    8.7913 C.ar    1  UNL1       -0.0003
     43 C          62.4448   85.7453    9.2832 C.ar    1  UNL1       -0.0042
@<TRIPOS>BOND
     1     8     9    1
     2     9    10    1
     3     9    11    1
     4     9     7    1
     5     7     3    1
     6     3     4    2
     7     3     5   am
     8     5     2    1
     9     2     1    1
    10     1    23    1
    11    23    24    1
    12    24    37    1
    13    37    38    1
    14    38    39   ar
    15    39    40   ar
    16    40    41   ar
    17    41    42   ar
    18    42    43   ar
    19    24    25    1
    20    25    26    2
    21    25    27   am
    22    27    29    1
    23    29    30    1
    24    30    31    1
    25    31    32   ar
    26    32    33   ar
    27    33    34   ar
    28    34    35   ar
    29    35    36   ar
    30     2    12    1
    31    12    13    1
    32    13    14   ar
    33    14    15   ar
    34    15    16   ar
    35    16    17   ar
    36    17    18   ar
    37    18    19   ar
    38    19    20   ar
    39    20    21   ar
    40    21    22   ar
    41    43    38   ar
    42    36    31   ar
    43    22    13   ar
    44    22    17   ar
    45     5     6    1
    46    27    28    1
@<TRIPOS>MOLECULE
*****
 43 46 0 0 0
SMALL
GASTEIGER

@<TRIPOS>ATOM
      1 C          63.0600   89.3767   13.5376 C.3     1  UNL1        0.0780
      2 C          64.3569   89.4142   14.2905 C.3     1  UNL1        0.0899
      3 C          64.7872   91.6411   15.5577 C.2     1  UNL1        0.4014
      4 O          63.7181   91.2843   16.5476 O.2     1  UNL1       -0.2264
      5 N          65.1065   90.7060   14.4292 N.am    1  UNL1       -0.2711
      6 H          65.8082   90.9402   13.7795 H       1  UNL1        0.1527
      7 O          65.5369   92.9328   15.6964 O.3     1  UNL1       -0.4419
      8 C          67.3088   92.2139   16.6148 C.3     1  UNL1        0.0437
      9 C          66.9996   92.9900   15.3690 C.3     1  UNL1        0.1378
     10 C          66.6905   93.7660   14.1232 C.3     1  UNL1        0.0437
     11 C          68.4623   93.0471   15.0416 C.3     1  UNL1        0.0437
     12 C          64.9040   88.1598   14.9046 C.3     1  UNL1        0.0469
     13 C          63.9900   87.2230   15.6374 C.ar    1  UNL1       -0.0205
     14 C          63.2654   87.6895   16.8652 C.ar    1  UNL1       -0.0042
     15 C          62.3514   86.7527   17.5980 C.ar    1  UNL1       -0.0003
     16 C          62.1620   85.3494   17.1030 C.ar    1  UNL1       -0.0000
     17 C          62.8866   84.8829   15.8752 C.ar    1  UNL1       -0.0003
     18 C          62.6972   83.4797   15.3803 C.ar    1  UNL1       -0.0000
     19 C          63.4217   83.0133   14.1526 C.ar    1  UNL1       -0.0000
     20 C          64.3358   83.9501   13.4198 C.ar    1  UNL1       -0.0000
     21 C          64.5252   85.3533   13.9147 C.ar    1  UNL1       -0.0003
     22 C          63.8006   85.8197   15.1424 C.ar    1  UNL1       -0.0039
     23 S          62.9508   88.5804   12.2711 S.3     1  UNL1       -0.1298
     24 C          62.2615   89.1656   11.0743 C.3     1  UNL1        0.1281
     25 C          62.7971   90.4128   10.4357 C.2     1  UNL1        0.2325
     26 O          62.1840   90.9288    9.1677 O.2     1  UNL1       -0.2742
     27 N          63.9457   91.1438   11.0651 N.am    1  UNL1       -0.3033
     28 H          64.3480   90.8051   11.8973 H       1  UNL1        0.1495
     29 C          64.4813   92.3909   10.4266 C.3     1  UNL1        0.0941
     30 C          65.8632   92.8700   10.7595 C.3     1  UNL1        0.0492
     31 C          66.3395   94.1982   10.2504 C.ar    1  UNL1       -0.0013
     32 C          65.9439   95.4591   10.9601 C.ar    1  UNL1       -0.0011
     33 C          66.4202   96.7872   10.4510 C.ar    1  UNL1        0.0204
     34 C          67.2921   96.8545    9.2323 C.ar    1  UNL1        0.0989
     35 N          67.6877   95.5936    8.5227 N.ar    1  UNL1       -0.2426
     36 C          67.2114   94.2655    9.0317 C.ar    1  UNL1        0.0946
     37 C          61.0366   88.5037   10.5161 C.3     1  UNL1        0.0463
     38 C          61.1718   87.4282    9.4792 C.ar    1  UNL1       -0.0208
     39 C          62.4686   86.6894    9.3297 C.ar    1  UNL1       -0.0042
     40 C          62.6038   85.6139    8.2929 C.ar    1  UNL1       -0.0003
     41 C          61.4422   85.2773    7.4055 C.ar    1  UNL1       -0.0000
     42 C          60.1455   86.0162    7.5550 C.ar    1  UNL1       -0.0003
     43 C          60.0103   87.0916    8.5919 C.ar    1  UNL1       -0.0042
@<TRIPOS>BOND
     1     8     9    1
     2     9    10    1
     3     9    11    1
     4     9     7    1
     5     7     3    1
     6     3     4    2
     7     3     5   am
     8     5     2    1
     9     2     1    1
    10     1    23    1
    11    23    24    1
    12    24    37    1
    13    37    38    1
    14    38    39   ar
    15    39    40   ar
    16    40    41   ar
    17    41    42   ar
    18    42    43   ar
    19    24    25    1
    20    25    26    2
    21    25    27   am
    22    27    29    1
    23    29    30    1
    24    30    31    1
    25    31    32   ar
    26    32    33   ar
    27    33    34   ar
    28    34    35   ar
    29    35    36   ar
    30     2    12    1
    31    12    13    1
    32    13    14   ar
    33    14    15   ar
    34    15    16   ar
    35    16    17   ar
    36    17    18   ar
    37    18    19   ar
    38    19    20   ar
    39    20    21   ar
    40    21    22   ar
    41    43    38   ar
    42    36    31   ar
    43    22    13   ar
    44    22    17   ar
    45     5     6    1
    46    27    28    1
@<TRIPOS>MOLECULE
*****
 43 46 0 0 0
SMALL
GASTEIGER

@<TRIPOS>ATOM
      1 C          61.8971   89.1980   12.6524 C.3     1  UNL1        0.0780
      2 C          62.6176   88.2881   11.7022 C.3     1  UNL1        0.0899
      3 C          62.7556   85.7428   12.2046 C.2     1  UNL1        0.4014
      4 O          61.3708   85.5598   11.6581 O.2     1  UNL1       -0.2264
      5 N          63.3791   87.1069   12.2267 N.am    1  UNL1       -0.2711
      6 H          64.2880   87.2270   12.5854 H       1  UNL1        0.1527
      7 O          63.5170   84.5617   12.7291 O.3     1  UNL1       -0.4419
      8 C          63.8073   83.3815   10.9904 C.3     1  UNL1        0.0437
      9 C          63.1292   83.1739   12.3121 C.3     1  UNL1        0.1378
     10 C          62.4510   82.9664   13.6338 C.3     1  UNL1        0.0437
     11 C          62.7413   81.7863   11.8952 C.3     1  UNL1        0.0437
     12 C          62.5767   88.5594   10.2275 C.3     1  UNL1        0.0469
     13 C          61.4371   88.0416    9.4010 C.ar    1  UNL1       -0.0205
     14 C          60.1139   88.7477    9.4220 C.ar    1  UNL1       -0.0042
     15 C          58.9743   88.2299    8.5954 C.ar    1  UNL1       -0.0003
     16 C          59.1579   87.0059    7.7480 C.ar    1  UNL1       -0.0000
     17 C          60.4811   86.2997    7.7270 C.ar    1  UNL1       -0.0003
     18 C          60.6647   85.0758    6.8795 C.ar    1  UNL1       -0.0000
     19 C          61.9879   84.3697    6.8585 C.ar    1  UNL1       -0.0000
     20 C          63.1275   84.8875    7.6851 C.ar    1  UNL1       -0.0000
     21 C          62.9440   86.1114    8.5325 C.ar    1  UNL1       -0.0003
     22 C          61.6208   86.8176    8.5535 C.ar    1  UNL1       -0.0039
     23 S          62.4529   90.5580   12.9555 S.3     1  UNL1       -0.1298
     24 C          63.6190   90.7008   13.8882 C.3     1  UNL1        0.1281
     25 C          64.9154   91.2650   13.3870 C.2     1  UNL1        0.2325
     26 O          66.1879   91.0002   14.1358 O.2     1  UNL1       -0.2742
     27 N          64.9393   92.0940   12.1372 N.am    1  UNL1       -0.3033
     28 H          64.1041   92.2678   11.6457 H       1  UNL1        0.1495
     29 C          66.2357   92.6581   11.6360 C.3     1  UNL1        0.0941
     30 C          66.5087   94.1285   11.7527 C.3     1  UNL1        0.0492
     31 C          66.4459   95.0019   10.5348 C.ar    1  UNL1       -0.0013
     32 C          67.5064   94.8948    9.4795 C.ar    1  UNL1       -0.0011
     33 C          67.4435   95.7682    8.2617 C.ar    1  UNL1        0.0204
     34 C          66.3201   96.7488    8.0992 C.ar    1  UNL1        0.0989
     35 N          65.2596   96.8560    9.1546 N.ar    1  UNL1       -0.2426
     36 C          65.3225   95.9825   10.3724 C.ar    1  UNL1        0.0946
     37 C          63.4887   90.2796   15.3218 C.3     1  UNL1        0.0463
     38 C          63.6032   88.8303   15.6911 C.ar    1  UNL1       -0.0208
     39 C          62.8388   88.2925   16.8643 C.ar    1  UNL1       -0.0042
     40 C          62.9534   86.8432   17.2336 C.ar    1  UNL1       -0.0003
     41 C          63.8324   85.9316   16.4296 C.ar    1  UNL1       -0.0000
     42 C          64.5968   86.4694   15.2564 C.ar    1  UNL1       -0.0003
     43 C          64.4823   87.9187   14.8872 C.ar    1  UNL1       -0.0042
@<TRIPOS>BOND
     1     8     9    1
     2     9    10    1
     3     9    11    1
     4     9     7    1
     5     7     3    1
     6     3     4    2
     7     3     5   am
     8     5     2    1
     9     2     1    1
    10     1    23    1
    11    23    24    1
    12    24    37    1
    13    37    38    1
    14    38    39   ar
    15    39    40   ar
    16    40    41   ar
    17    41    42   ar
    18    42    43   ar
    19    24    25    1
    20    25    26    2
    21    25    27   am
    22    27    29    1
    23    29    30    1
    24    30    31    1
    25    31    32   ar
    26    32    33   ar
    27    33    34   ar
    28    34    35   ar
    29    35    36   ar
    30     2    12    1
    31    12    13    1
    32    13    14   ar
    33    14    15   ar
    34    15    16   ar
    35    16    17   ar
    36    17    18   ar
    37    18    19   ar
    38    19    20   ar
    39    20    21   ar
    40    21    22   ar
    41    43    38   ar
    42    36    31   ar
    43    22    13   ar
    44    22    17   ar
    45     5     6    1
    46    27    28    1
@<TRIPOS>MOLECULE
*****
 43 46 0 0 0
SMALL
GASTEIGER

@<TRIPOS>ATOM
      1 C          63.1538   87.6480   12.1286 C.3     1  UNL1        0.0780
      2 C          62.1060   86.5774   12.0507 C.3     1  UNL1        0.0899
      3 C          60.8391   86.9139    9.8075 C.2     1  UNL1        0.4014
      4 O          62.1258   86.7443    9.0554 O.2     1  UNL1       -0.2264
      5 N          60.8292   86.8304   11.3051 N.am    1  UNL1       -0.2711
      6 H          59.9847   86.9417   11.7988 H       1  UNL1        0.1527
      7 O          59.5623   87.1669    9.0620 O.3     1  UNL1       -0.4419
      8 C          59.0571   87.1721    7.0017 C.3     1  UNL1        0.0437
      9 C          59.5173   88.2085    7.9835 C.3     1  UNL1        0.1378
     10 C          59.9775   89.2449    8.9653 C.3     1  UNL1        0.0437
     11 C          59.4723   89.2501    6.9051 C.3     1  UNL1        0.0437
     12 C          62.3350   85.2539   12.7184 C.3     1  UNL1        0.0469
     13 C          62.8161   84.0820   11.9153 C.ar    1  UNL1       -0.0205
     14 C          63.5502   84.3065   10.6266 C.ar    1  UNL1       -0.0042
     15 C          64.0313   83.1345    9.8235 C.ar    1  UNL1       -0.0003
     16 C          63.7783   81.7381   10.3090 C.ar    1  UNL1       -0.0000
     17 C          63.0442   81.5135   11.5977 C.ar    1  UNL1       -0.0003
     18 C          62.7912   80.1170   12.0832 C.ar    1  UNL1       -0.0000
     19 C          62.0572   79.8924   13.3719 C.ar    1  UNL1       -0.0000
     20 C          61.5760   81.0644   14.1750 C.ar    1  UNL1       -0.0000
     21 C          61.8290   82.4609   13.6895 C.ar    1  UNL1       -0.0003
     22 C          62.5631   82.6854   12.4009 C.ar    1  UNL1       -0.0039
     23 S          62.7707   89.0869   11.9473 S.3     1  UNL1       -0.1298
     24 C          63.3302   90.1333   12.8650 C.3     1  UNL1        0.1281
     25 C          63.7354   89.7666   14.2619 C.2     1  UNL1        0.2325
     26 O          65.1887   89.6885   14.6252 O.2     1  UNL1       -0.2742
     27 N          62.6874   89.4781   15.2956 N.am    1  UNL1       -0.3033
     28 H          61.7336   89.5294   15.0571 H       1  UNL1        0.1495
     29 C          63.0926   89.1114   16.6924 C.3     1  UNL1        0.0941
     30 C          62.7869   87.7439   17.2275 C.3     1  UNL1        0.0492
     31 C          63.3272   86.5288   16.5333 C.ar    1  UNL1       -0.0013
     32 C          64.5213   86.6481   15.6334 C.ar    1  UNL1       -0.0011
     33 C          65.0616   85.4331   14.9392 C.ar    1  UNL1        0.0204
     34 C          64.4078   84.0989   15.1450 C.ar    1  UNL1        0.0989
     35 N          63.2137   83.9796   16.0449 N.ar    1  UNL1       -0.2426
     36 C          62.6734   85.1946   16.7391 C.ar    1  UNL1        0.0946
     37 C          63.4844   91.5463   12.3858 C.3     1  UNL1        0.0463
     38 C          64.8290   92.0476   11.9490 C.ar    1  UNL1       -0.0208
     39 C          65.0621   92.4160   10.5138 C.ar    1  UNL1       -0.0042
     40 C          66.4067   92.9173   10.0771 C.ar    1  UNL1       -0.0003
     41 C          67.5181   93.0503   11.0755 C.ar    1  UNL1       -0.0000
     42 C          67.2850   92.6818   12.5107 C.ar    1  UNL1       -0.0003
     43 C          65.9404   92.1805   12.9475 C.ar    1  UNL1       -0.0042
@<TRIPOS>BOND
     1     8     9    1
     2     9    10    1
     3     9    11    1
     4     9     7    1
     5     7     3    1
     6     3     4    2
     7     3     5   am
     8     5     2    1
     9     2     1    1
    10     1    23    1
    11    23    24    1
    12    24    37    1
    13    37    38    1
    14    38    39   ar
    15    39    40   ar
    16    40    41   ar
    17    41    42   ar
    18    42    43   ar
    19    24    25    1
    20    25    26    2
    21    25    27   am
    22    27    29    1
    23    29    30    1
    24    30    31    1
    25    31    32   ar
    26    32    33   ar
    27    33    34   ar
    28    34    35   ar
    29    35    36   ar
    30     2    12    1
    31    12    13    1
    32    13    14   ar
    33    14    15   ar
    34    15    16   ar
    35    16    17   ar
    36    17    18   ar
    37    18    19   ar
    38    19    20   ar
    39    20    21   ar
    40    21    22   ar
    41    43    38   ar
    42    36    31   ar
    43    22    13   ar
    44    22    17   ar
    45     5     6    1
    46    27    28    1
@<TRIPOS>MOLECULE
*****
 43 46 0 0 0
SMALL
GASTEIGER

@<TRIPOS>ATOM
      1 C          63.4825   87.0492   12.5453 C.3     1  UNL1        0.0780
      2 C          62.6238   86.0592   11.8155 C.3     1  UNL1        0.0899
      3 C          61.0376   86.8232    9.9049 C.2     1  UNL1        0.4014
      4 O          62.1853   86.7917    8.9395 O.2     1  UNL1       -0.2264
      5 N          61.2568   86.4569   11.3428 N.am    1  UNL1       -0.2711
      6 H          60.5036   86.4776   11.9764 H       1  UNL1        0.1527
      7 O          59.6707   87.2209    9.4323 O.3     1  UNL1       -0.4419
      8 C          58.9953   86.8885    7.4490 C.3     1  UNL1        0.0437
      9 C          59.5191   88.0723    8.2066 C.3     1  UNL1        0.1378
     10 C          60.0430   89.2561    8.9643 C.3     1  UNL1        0.0437
     11 C          59.3676   88.9237    6.9811 C.3     1  UNL1        0.0437
     12 C          63.1320   84.6716   11.5583 C.3     1  UNL1        0.0469
     13 C          62.7728   83.5558   12.4943 C.ar    1  UNL1       -0.0205
     14 C          62.4027   83.8592   13.9159 C.ar    1  UNL1       -0.0042
     15 C          62.0435   82.7434   14.8518 C.ar    1  UNL1       -0.0003
     16 C          62.0542   81.3243   14.3661 C.ar    1  UNL1       -0.0000
     17 C          62.4243   81.0209   12.9445 C.ar    1  UNL1       -0.0003
     18 C          62.4350   79.6017   12.4588 C.ar    1  UNL1       -0.0000
     19 C          62.8051   79.2984   11.0372 C.ar    1  UNL1       -0.0000
     20 C          63.1643   80.4142   10.1013 C.ar    1  UNL1       -0.0000
     21 C          63.1536   81.8333   10.5869 C.ar    1  UNL1       -0.0003
     22 C          62.7835   82.1366   12.0085 C.ar    1  UNL1       -0.0039
     23 S          63.0254   88.4698   12.6977 S.3     1  UNL1       -0.1298
     24 C          63.9318   89.4859   13.3269 C.3     1  UNL1        0.1281
     25 C          64.1653   90.8040   12.6499 C.2     1  UNL1        0.2325
     26 O          63.1548   91.3375   11.6782 O.2     1  UNL1       -0.2742
     27 N          65.4094   91.5885   12.9447 N.am    1  UNL1       -0.3033
     28 H          66.0726   91.2383   13.5825 H       1  UNL1        0.1495
     29 C          65.6429   92.9065   12.2678 C.3     1  UNL1        0.0941
     30 C          66.7053   93.0317   11.2163 C.3     1  UNL1        0.0492
     31 C          66.8145   94.2897   10.4066 C.ar    1  UNL1       -0.0013
     32 C          66.2430   95.5726   10.9333 C.ar    1  UNL1       -0.0011
     33 C          66.3522   96.8306   10.1236 C.ar    1  UNL1        0.0204
     34 C          67.0329   96.8055    8.7872 C.ar    1  UNL1        0.0989
     35 N          67.6044   95.5226    8.2604 N.ar    1  UNL1       -0.2426
     36 C          67.4952   94.2647    9.0702 C.ar    1  UNL1        0.0946
     37 C          64.6046   89.1840   14.6331 C.3     1  UNL1        0.0463
     38 C          64.0359   88.1381   15.5456 C.ar    1  UNL1       -0.0208
     39 C          64.3942   86.6951   15.3478 C.ar    1  UNL1       -0.0042
     40 C          63.8255   85.6492   16.2603 C.ar    1  UNL1       -0.0003
     41 C          62.8984   86.0463   17.3706 C.ar    1  UNL1       -0.0000
     42 C          62.5401   87.4894   17.5684 C.ar    1  UNL1       -0.0003
     43 C          63.1088   88.5353   16.6559 C.ar    1  UNL1       -0.0042
@<TRIPOS>BOND
     1     8     9    1
     2     9    10    1
     3     9    11    1
     4     9     7    1
     5     7     3    1
     6     3     4    2
     7     3     5   am
     8     5     2    1
     9     2     1    1
    10     1    23    1
    11    23    24    1
    12    24    37    1
    13    37    38    1
    14    38    39   ar
    15    39    40   ar
    16    40    41   ar
    17    41    42   ar
    18    42    43   ar
    19    24    25    1
    20    25    26    2
    21    25    27   am
    22    27    29    1
    23    29    30    1
    24    30    31    1
    25    31    32   ar
    26    32    33   ar
    27    33    34   ar
    28    34    35   ar
    29    35    36   ar
    30     2    12    1
    31    12    13    1
    32    13    14   ar
    33    14    15   ar
    34    15    16   ar
    35    16    17   ar
    36    17    18   ar
    37    18    19   ar
    38    19    20   ar
    39    20    21   ar
    40    21    22   ar
    41    43    38   ar
    42    36    31   ar
    43    22    13   ar
    44    22    17   ar
    45     5     6    1
    46    27    28    1
