@<TRIPOS>MOLECULE
*****
 39 43 0 0 0
SMALL
GASTEIGER

@<TRIPOS>ATOM
      1 C          62.9868   83.6539   12.3589 C.3     1  UNL1        0.2246
      2 C          62.7702   83.5064   13.8358 C.2     1  UNL1        0.0436
      3 C          63.2998   82.3012   14.5548 C.2     1  UNL1        0.0288
      4 C          64.0459   81.2434   13.7970 C.2     1  UNL1        0.0896
      5 N          64.2626   81.3908   12.3201 N.am    1  UNL1       -0.1770
      6 C          63.7330   82.5961   11.6010 C.2     1  UNL1        0.2627
      7 O          63.9497   82.7435   10.1241 O.2     1  UNL1       -0.2719
      8 C          62.5039   89.5417   11.9289 C.3     1  UNL1        0.0312
      9 C          61.8439   88.6496   10.9197 C.2     1  UNL1        0.0125
     10 C          61.0553   89.2472    9.7924 C.2     1  UNL1        0.0007
     11 C          60.3953   88.3551    8.7833 C.2     1  UNL1        0.0564
     12 C          60.5239   86.8653    8.9013 C.2     1  UNL1        0.0513
     13 C          61.3125   86.2676   10.0287 C.2     1  UNL1        0.2235
     14 N          61.6121   84.8457   10.4007 N.2     1  UNL1       -0.0378
     15 C          62.4573   84.8591   11.6398 C.2     1  UNL1        0.3605
     16 N          62.6800   86.2892   12.0336 N.2     1  UNL1       -0.0547
     17 C          61.9725   87.1598   11.0379 C.3     1  UNL1        0.2975
     18 C          59.6067   88.9529    7.6558 C.2     1  UNL1        0.2459
     19 O          58.3830   88.2532    7.1430 O.2     1  UNL1       -0.2701
     20 N          60.0418   90.2502    7.0414 N.am    1  UNL1       -0.3025
     21 H          60.8449   90.7094    7.3780 H       1  UNL1        0.1497
     22 C          59.2532   90.8479    5.9141 C.3     1  UNL1        0.0719
     23 C          59.8196   91.5706    4.7280 C.3     1  UNL1        0.0196
     24 C          58.6763   91.9973    3.8557 C.3     1  UNL1        0.0017
     25 C          57.4033   91.5381    4.5027 C.3     1  UNL1        0.0017
     26 C          57.7598   90.8278    5.7749 C.3     1  UNL1        0.0196
     27 N          62.0240   84.5641   14.5937 N.pl3   1  UNL1       -0.3329
     28 H          61.1074   84.8060   14.3280 H       1  UNL1        0.1466
     29 C          62.6743   85.2534   15.7565 C.3     1  UNL1        0.1211
     30 C          63.9193   86.0635   15.5474 C.3     1  UNL1        0.1522
     31 O          65.2135   85.3791   15.2212 O.3     1  UNL1       -0.3783
     32 H          65.0716   84.4202   15.1831 H       1  UNL1        0.2109
     33 C          63.8700   87.5581   15.6647 C.ar    1  UNL1        0.0067
     34 C          63.1105   88.1976   16.7890 C.ar    1  UNL1       -0.0018
     35 C          63.0613   89.6922   16.9063 C.ar    1  UNL1        0.0006
     36 C          63.7715   90.5474   15.8992 C.ar    1  UNL1        0.0114
     37 C          64.5310   89.9078   14.7748 C.ar    1  UNL1        0.0574
     38 CL         65.2412   90.7630   13.7677 Cl      1  UNL1       -0.0823
     39 C          64.5802   88.4133   14.6576 C.ar    1  UNL1        0.0095
@<TRIPOS>BOND
     1     8     9    1
     2     9    10    2
     3    10    11    1
     4    11    18    1
     5    18    19    2
     6    18    20   am
     7    20    22    1
     8    22    23    1
     9    23    24    1
    10    24    25    1
    11    25    26    1
    12    11    12    2
    13    12    13    1
    14    13    14    2
    15    14    15    1
    16    15     1    1
    17     1     2    1
    18     2    27    1
    19    27    29    1
    20    29    30    1
    21    30    31    1
    22    30    33    1
    23    33    34   ar
    24    34    35   ar
    25    35    36   ar
    26    36    37   ar
    27    37    38    1
    28    37    39   ar
    29     2     3    2
    30     3     4    1
    31     4     5    2
    32     5     6    1
    33     6     7    2
    34    15    16    2
    35    16    17    1
    36    17     9    1
    37    26    22    1
    38    17    13    1
    39     6     1    1
    40    39    33   ar
    41    20    21    1
    42    27    28    1
    43    31    32    1
@<TRIPOS>MOLECULE
*****
 39 43 0 0 0
SMALL
GASTEIGER

@<TRIPOS>ATOM
      1 C          63.0735   84.7114   13.2018 C.3     1  UNL1        0.2246
      2 C          63.7713   85.6404   14.1505 C.2     1  UNL1        0.0436
      3 C          64.3265   85.1159   15.4415 C.2     1  UNL1        0.0288
      4 C          64.1841   83.6624   15.7838 C.2     1  UNL1        0.0896
      5 N          63.4864   82.7334   14.8351 N.am    1  UNL1       -0.1770
      6 C          62.9311   83.2579   13.5441 C.2     1  UNL1        0.2627
      7 O          62.2334   82.3289   12.5954 O.2     1  UNL1       -0.2719
      8 C          62.7763   84.4555    7.2916 C.3     1  UNL1        0.0312
      9 C          61.9795   85.4762    8.0489 C.2     1  UNL1        0.0125
     10 C          61.1003   86.4407    7.3096 C.2     1  UNL1        0.0007
     11 C          60.3036   87.4613    8.0668 C.2     1  UNL1        0.0564
     12 C          60.3861   87.5175    9.5635 C.2     1  UNL1        0.0513
     13 C          61.2654   86.5530   10.3029 C.2     1  UNL1        0.2235
     14 N          61.5473   86.3697   11.7647 N.2     1  UNL1       -0.0378
     15 C          62.5182   85.2358   11.9109 C.2     1  UNL1        0.3605
     16 N          62.8364   84.7182   10.5394 N.2     1  UNL1       -0.0547
     17 C          62.0621   85.5324    9.5456 C.3     1  UNL1        0.2975
     18 C          59.4243   88.4258    7.3274 C.2     1  UNL1        0.2459
     19 O          57.9322   88.3015    7.4180 O.2     1  UNL1       -0.2701
     20 N          60.0371   89.5146    6.4974 N.am    1  UNL1       -0.3025
     21 H          61.0165   89.5962    6.4379 H       1  UNL1        0.1497
     22 C          59.1579   90.4791    5.7580 C.3     1  UNL1        0.0719
     23 C          59.6243   91.6137    4.8948 C.3     1  UNL1        0.0196
     24 C          58.4126   92.3142    4.3552 C.3     1  UNL1        0.0017
     25 C          57.1973   91.6125    4.8851 C.3     1  UNL1        0.0017
     26 C          57.6579   90.4784    5.7521 C.3     1  UNL1        0.0196
     27 N          63.9137   87.0938   13.8084 N.pl3   1  UNL1       -0.3329
     28 H          63.7351   87.4034   12.8910 H       1  UNL1        0.1466
     29 C          64.3283   88.0757   14.8638 C.3     1  UNL1        0.1211
     30 C          63.8086   89.4823   14.8253 C.3     1  UNL1        0.1522
     31 O          62.8560   89.9590   15.8814 O.3     1  UNL1       -0.3783
     32 H          62.6813   89.2394   16.5079 H       1  UNL1        0.2109
     33 C          64.2414   90.4120   13.7307 C.ar    1  UNL1        0.0067
     34 C          65.4259   91.3096   13.9336 C.ar    1  UNL1       -0.0018
     35 C          65.8587   92.2394   12.8390 C.ar    1  UNL1        0.0006
     36 C          65.1069   92.2716   11.5414 C.ar    1  UNL1        0.0114
     37 C          63.9224   91.3741   11.3384 C.ar    1  UNL1        0.0574
     38 CL         63.1706   91.4063   10.0408 Cl      1  UNL1       -0.0823
     39 C          63.4896   90.4443   12.4331 C.ar    1  UNL1        0.0095
@<TRIPOS>BOND
     1     8     9    1
     2     9    10    2
     3    10    11    1
     4    11    18    1
     5    18    19    2
     6    18    20   am
     7    20    22    1
     8    22    23    1
     9    23    24    1
    10    24    25    1
    11    25    26    1
    12    11    12    2
    13    12    13    1
    14    13    14    2
    15    14    15    1
    16    15     1    1
    17     1     2    1
    18     2    27    1
    19    27    29    1
    20    29    30    1
    21    30    31    1
    22    30    33    1
    23    33    34   ar
    24    34    35   ar
    25    35    36   ar
    26    36    37   ar
    27    37    38    1
    28    37    39   ar
    29     2     3    2
    30     3     4    1
    31     4     5    2
    32     5     6    1
    33     6     7    2
    34    15    16    2
    35    16    17    1
    36    17     9    1
    37    26    22    1
    38    17    13    1
    39     6     1    1
    40    39    33   ar
    41    20    21    1
    42    27    28    1
    43    31    32    1
@<TRIPOS>MOLECULE
*****
 39 43 0 0 0
SMALL
GASTEIGER

@<TRIPOS>ATOM
      1 C          63.0422   84.7213   13.1980 C.3     1  UNL1        0.2246
      2 C          63.7095   85.6614   14.1577 C.2     1  UNL1        0.0436
      3 C          64.2628   85.1437   15.4523 C.2     1  UNL1        0.0288
      4 C          64.1490   83.6860   15.7871 C.2     1  UNL1        0.0896
      5 N          63.4818   82.7459   14.8275 N.am    1  UNL1       -0.1770
      6 C          62.9284   83.2636   13.5329 C.2     1  UNL1        0.2627
      7 O          62.2612   82.3235   12.5732 O.2     1  UNL1       -0.2719
      8 C          62.7726   84.4501    7.2871 C.3     1  UNL1        0.0312
      9 C          61.9654   85.4668    8.0387 C.2     1  UNL1        0.0125
     10 C          61.0825   86.4233    7.2933 C.2     1  UNL1        0.0007
     11 C          60.2754   87.4400    8.0447 C.2     1  UNL1        0.0564
     12 C          60.3509   87.5001    9.5417 C.2     1  UNL1        0.0513
     13 C          61.2338   86.5436   10.2870 C.2     1  UNL1        0.2235
     14 N          61.5106   86.3655   11.7505 N.2     1  UNL1       -0.0378
     15 C          62.4889   85.2388   11.9034 C.2     1  UNL1        0.3605
     16 N          62.8167   84.7205   10.5345 N.2     1  UNL1       -0.0547
     17 C          62.0410   85.5269    9.5355 C.3     1  UNL1        0.2975
     18 C          59.3925   88.3966    7.2993 C.2     1  UNL1        0.2459
     19 O          57.9024   88.2297    7.3407 O.2     1  UNL1       -0.2701
     20 N          59.9998   89.5200    6.5125 N.am    1  UNL1       -0.3025
     21 H          60.9778   89.6296    6.4853 H       1  UNL1        0.1497
     22 C          59.1169   90.4766    5.7671 C.3     1  UNL1        0.0719
     23 C          59.5791   91.6105    4.9008 C.3     1  UNL1        0.0196
     24 C          58.3648   92.3020    4.3554 C.3     1  UNL1        0.0017
     25 C          57.1522   91.5953    4.8847 C.3     1  UNL1        0.0017
     26 C          57.6170   90.4672    5.7572 C.3     1  UNL1        0.0196
     27 N          63.8233   87.1190   13.8229 N.pl3   1  UNL1       -0.3329
     28 H          63.5383   87.4447   12.9386 H       1  UNL1        0.1466
     29 C          64.3716   88.0806   14.8352 C.3     1  UNL1        0.1211
     30 C          63.9083   89.5072   14.8424 C.3     1  UNL1        0.1522
     31 O          62.6348   89.8786   15.5427 O.3     1  UNL1       -0.3783
     32 H          62.2382   89.0851   15.9350 H       1  UNL1        0.2109
     33 C          64.7184   90.5623   14.1494 C.ar    1  UNL1        0.0067
     34 C          64.2661   91.1073   12.8271 C.ar    1  UNL1       -0.0018
     35 C          65.0763   92.1625   12.1341 C.ar    1  UNL1        0.0006
     36 C          66.3388   92.6726   12.7632 C.ar    1  UNL1        0.0114
     37 C          66.7910   92.1276   14.0855 C.ar    1  UNL1        0.0574
     38 CL         68.0535   92.6378   14.7147 Cl      1  UNL1       -0.0823
     39 C          65.9809   91.0725   14.7785 C.ar    1  UNL1        0.0095
@<TRIPOS>BOND
     1     8     9    1
     2     9    10    2
     3    10    11    1
     4    11    18    1
     5    18    19    2
     6    18    20   am
     7    20    22    1
     8    22    23    1
     9    23    24    1
    10    24    25    1
    11    25    26    1
    12    11    12    2
    13    12    13    1
    14    13    14    2
    15    14    15    1
    16    15     1    1
    17     1     2    1
    18     2    27    1
    19    27    29    1
    20    29    30    1
    21    30    31    1
    22    30    33    1
    23    33    34   ar
    24    34    35   ar
    25    35    36   ar
    26    36    37   ar
    27    37    38    1
    28    37    39   ar
    29     2     3    2
    30     3     4    1
    31     4     5    2
    32     5     6    1
    33     6     7    2
    34    15    16    2
    35    16    17    1
    36    17     9    1
    37    26    22    1
    38    17    13    1
    39     6     1    1
    40    39    33   ar
    41    20    21    1
    42    27    28    1
    43    31    32    1
@<TRIPOS>MOLECULE
*****
 39 43 0 0 0
SMALL
GASTEIGER

@<TRIPOS>ATOM
      1 C          65.2093   91.6568   13.6051 C.3     1  UNL1        0.2246
      2 C          64.9612   92.0497   12.1789 C.2     1  UNL1        0.0436
      3 C          65.4005   93.3961   11.6846 C.2     1  UNL1        0.0288
      4 C          66.0878   94.3496   12.6165 C.2     1  UNL1        0.0896
      5 N          66.3358   93.9568   14.0427 N.am    1  UNL1       -0.1770
      6 C          65.8966   92.6104   14.5370 C.2     1  UNL1        0.2627
      7 O          66.1446   92.2175   15.9632 O.2     1  UNL1       -0.2719
      8 C          62.8897   88.3000   17.8988 C.3     1  UNL1        0.0312
      9 C          63.3017   87.6864   16.5936 C.2     1  UNL1        0.0125
     10 C          63.1274   86.2136   16.3691 C.2     1  UNL1        0.0007
     11 C          63.5394   85.5999   15.0640 C.2     1  UNL1        0.0564
     12 C          64.1259   86.4590   13.9831 C.2     1  UNL1        0.0513
     13 C          64.3002   87.9318   14.2076 C.2     1  UNL1        0.2235
     14 N          64.8453   89.0226   13.3341 N.2     1  UNL1       -0.0378
     15 C          64.7701   90.3105   14.0995 C.2     1  UNL1        0.3605
     16 N          64.1785   90.0156   15.4460 N.2     1  UNL1       -0.0547
     17 C          63.8881   88.5455   15.5129 C.3     1  UNL1        0.2975
     18 C          63.3651   84.1270   14.8395 C.2     1  UNL1        0.2459
     19 O          64.0584   83.1444   15.7360 O.2     1  UNL1       -0.2701
     20 N          62.4974   83.6368   13.7184 N.am    1  UNL1       -0.3025
     21 H          62.0423   84.2817   13.1299 H       1  UNL1        0.1497
     22 C          62.3230   82.1639   13.4939 C.3     1  UNL1        0.0719
     23 C          61.3867   81.2627   14.2430 C.3     1  UNL1        0.0196
     24 C          61.5393   79.8755   13.6930 C.3     1  UNL1        0.0017
     25 C          62.5699   79.9195   12.6040 C.3     1  UNL1        0.0017
     26 C          63.0543   81.3338   12.4810 C.3     1  UNL1        0.0196
     27 N          64.2740   91.0962   11.2470 N.pl3   1  UNL1       -0.3329
     28 H          64.8054   90.4754   10.6979 H       1  UNL1        0.1466
     29 C          62.7770   91.0886   11.1515 C.3     1  UNL1        0.1211
     30 C          61.9975   89.9233   11.6847 C.3     1  UNL1        0.1522
     31 O          61.6499   89.8574   13.1424 O.3     1  UNL1       -0.3783
     32 H          62.0014   90.6404   13.5943 H       1  UNL1        0.2109
     33 C          61.5655   88.8239   10.7602 C.ar    1  UNL1        0.0067
     34 C          62.0619   87.4248   10.9751 C.ar    1  UNL1       -0.0018
     35 C          61.6299   86.3254   10.0507 C.ar    1  UNL1        0.0006
     36 C          60.7015   86.6250    8.9112 C.ar    1  UNL1        0.0114
     37 C          60.2052   88.0240    8.6963 C.ar    1  UNL1        0.0574
     38 CL         59.2768   88.3237    7.5568 Cl      1  UNL1       -0.0823
     39 C          60.6371   89.1235    9.6208 C.ar    1  UNL1        0.0095
@<TRIPOS>BOND
     1     8     9    1
     2     9    10    2
     3    10    11    1
     4    11    18    1
     5    18    19    2
     6    18    20   am
     7    20    22    1
     8    22    23    1
     9    23    24    1
    10    24    25    1
    11    25    26    1
    12    11    12    2
    13    12    13    1
    14    13    14    2
    15    14    15    1
    16    15     1    1
    17     1     2    1
    18     2    27    1
    19    27    29    1
    20    29    30    1
    21    30    31    1
    22    30    33    1
    23    33    34   ar
    24    34    35   ar
    25    35    36   ar
    26    36    37   ar
    27    37    38    1
    28    37    39   ar
    29     2     3    2
    30     3     4    1
    31     4     5    2
    32     5     6    1
    33     6     7    2
    34    15    16    2
    35    16    17    1
    36    17     9    1
    37    26    22    1
    38    17    13    1
    39     6     1    1
    40    39    33   ar
    41    20    21    1
    42    27    28    1
    43    31    32    1
@<TRIPOS>MOLECULE
*****
 39 43 0 0 0
SMALL
GASTEIGER

@<TRIPOS>ATOM
      1 C          61.2193   87.6178    9.6725 C.3     1  UNL1        0.2246
      2 C          61.5310   86.3264    8.9761 C.2     1  UNL1        0.0436
      3 C          60.6600   85.8519    7.8508 C.2     1  UNL1        0.0288
      4 C          59.4773   86.6688    7.4219 C.2     1  UNL1        0.0896
      5 N          59.1656   87.9602    8.1183 N.am    1  UNL1       -0.1770
      6 C          60.0366   88.4347    9.2436 C.2     1  UNL1        0.2627
      7 O          59.7250   89.7262    9.9400 O.2     1  UNL1       -0.2719
      8 C          64.0253   86.5194   14.7719 C.3     1  UNL1        0.0312
      9 C          64.1051   87.8765   14.1379 C.2     1  UNL1        0.0125
     10 C          64.8993   88.9660   14.7953 C.2     1  UNL1        0.0007
     11 C          64.9791   90.3229   14.1613 C.2     1  UNL1        0.0564
     12 C          64.2647   90.5906   12.8697 C.2     1  UNL1        0.0513
     13 C          63.4705   89.5011   12.2123 C.2     1  UNL1        0.2235
     14 N          62.6668   89.4692   10.9461 N.2     1  UNL1       -0.0378
     15 C          62.0903   88.0924   10.7977 C.2     1  UNL1        0.3605
     16 N          62.5377   87.2734   11.9721 N.2     1  UNL1       -0.0547
     17 C          63.3907   88.1440   12.8463 C.3     1  UNL1        0.2975
     18 C          65.7733   91.4125   14.8188 C.2     1  UNL1        0.2459
     19 O          65.0878   92.4104   15.7043 O.2     1  UNL1       -0.2701
     20 N          67.2531   91.5040   14.5907 N.am    1  UNL1       -0.3025
     21 H          67.7030   90.8491   14.0095 H       1  UNL1        0.1497
     22 C          68.0473   92.5935   15.2481 C.3     1  UNL1        0.0719
     23 C          67.8306   94.0680   15.0780 C.3     1  UNL1        0.0196
     24 C          68.8470   94.7856   15.9159 C.3     1  UNL1        0.0017
     25 C          69.6918   93.7546   16.6038 C.3     1  UNL1        0.0017
     26 C          69.1975   92.3998   16.1912 C.3     1  UNL1        0.0196
     27 N          62.7137   85.5094    9.4048 N.pl3   1  UNL1       -0.3329
     28 H          63.5788   85.9474    9.5751 H       1  UNL1        0.1466
     29 C          62.5783   84.0252    9.5742 C.3     1  UNL1        0.1211
     30 C          63.5219   83.2839   10.4742 C.3     1  UNL1        0.1522
     31 O          64.9653   83.1397   10.0921 O.3     1  UNL1       -0.3783
     32 H          65.1201   83.5798    9.2417 H       1  UNL1        0.2109
     33 C          63.0222   82.6867   11.7563 C.ar    1  UNL1        0.0067
     34 C          62.7336   81.2170   11.8368 C.ar    1  UNL1       -0.0018
     35 C          62.2339   80.6198   13.1188 C.ar    1  UNL1        0.0006
     36 C          62.0227   81.4925   14.3205 C.ar    1  UNL1        0.0114
     37 C          62.3113   82.9622   14.2399 C.ar    1  UNL1        0.0574
     38 CL         62.1001   83.8348   15.4416 Cl      1  UNL1       -0.0823
     39 C          62.8110   83.5594   12.9579 C.ar    1  UNL1        0.0095
@<TRIPOS>BOND
     1     8     9    1
     2     9    10    2
     3    10    11    1
     4    11    18    1
     5    18    19    2
     6    18    20   am
     7    20    22    1
     8    22    23    1
     9    23    24    1
    10    24    25    1
    11    25    26    1
    12    11    12    2
    13    12    13    1
    14    13    14    2
    15    14    15    1
    16    15     1    1
    17     1     2    1
    18     2    27    1
    19    27    29    1
    20    29    30    1
    21    30    31    1
    22    30    33    1
    23    33    34   ar
    24    34    35   ar
    25    35    36   ar
    26    36    37   ar
    27    37    38    1
    28    37    39   ar
    29     2     3    2
    30     3     4    1
    31     4     5    2
    32     5     6    1
    33     6     7    2
    34    15    16    2
    35    16    17    1
    36    17     9    1
    37    26    22    1
    38    17    13    1
    39     6     1    1
    40    39    33   ar
    41    20    21    1
    42    27    28    1
    43    31    32    1
@<TRIPOS>MOLECULE
*****
 39 43 0 0 0
SMALL
GASTEIGER

@<TRIPOS>ATOM
      1 C          63.1452   83.2523   13.4815 C.3     1  UNL1        0.2246
      2 C          62.6618   82.9983   12.0844 C.2     1  UNL1        0.0436
      3 C          62.4832   81.5910   11.5969 C.2     1  UNL1        0.0288
      4 C          62.7880   80.4378   12.5063 C.2     1  UNL1        0.0896
      5 N          63.2714   80.6917   13.9034 N.am    1  UNL1       -0.1770
      6 C          63.4500   82.0990   14.3909 C.2     1  UNL1        0.2627
      7 O          63.9334   82.3530   15.7880 O.2     1  UNL1       -0.2719
      8 C          62.7209   87.2393   17.8414 C.3     1  UNL1        0.0312
      9 C          63.2371   87.6415   16.4916 C.2     1  UNL1        0.0125
     10 C          63.6499   89.0613   16.2391 C.2     1  UNL1        0.0007
     11 C          64.1661   89.4635   14.8894 C.2     1  UNL1        0.0564
     12 C          64.2696   88.4459   13.7922 C.2     1  UNL1        0.0513
     13 C          63.8568   87.0261   14.0447 C.2     1  UNL1        0.2235
     14 N          63.8464   85.8121   13.1638 N.2     1  UNL1       -0.0378
     15 C          63.3238   84.6595   13.9691 C.2     1  UNL1        0.3605
     16 N          63.0112   85.1613   15.3477 N.2     1  UNL1       -0.0547
     17 C          63.3406   86.6239   15.3945 C.3     1  UNL1        0.2975
     18 C          64.5789   90.8834   14.6369 C.2     1  UNL1        0.2459
     19 O          64.1503   91.9681   15.5801 O.2     1  UNL1       -0.2701
     20 N          65.4203   91.2184   13.4411 N.am    1  UNL1       -0.3025
     21 H          65.7016   90.5064   12.8221 H       1  UNL1        0.1497
     22 C          65.8331   92.6382   13.1886 C.3     1  UNL1        0.0719
     23 C          65.6719   93.3871   11.8989 C.3     1  UNL1        0.0196
     24 C          66.2187   94.7701   12.0946 C.3     1  UNL1        0.0017
     25 C          66.7179   94.8759   13.5051 C.3     1  UNL1        0.0017
     26 C          66.4795   93.5583   14.1812 C.3     1  UNL1        0.0196
     27 N          62.3570   84.1515   11.1750 N.pl3   1  UNL1       -0.3329
     28 H          61.5899   84.7386   11.3647 H       1  UNL1        0.1466
     29 C          63.2210   84.4102    9.9764 C.3     1  UNL1        0.1211
     30 C          62.6897   85.2170    8.8289 C.3     1  UNL1        0.1522
     31 O          62.9354   84.7679    7.4190 O.3     1  UNL1       -0.3783
     32 H          63.4490   83.9450    7.4266 H       1  UNL1        0.2109
     33 C          61.9126   86.4729    9.0913 C.ar    1  UNL1        0.0067
     34 C          60.5178   86.6169    8.5588 C.ar    1  UNL1       -0.0018
     35 C          59.7406   87.8728    8.8212 C.ar    1  UNL1        0.0006
     36 C          60.3584   88.9847    9.6163 C.ar    1  UNL1        0.0114
     37 C          61.7532   88.8406   10.1488 C.ar    1  UNL1        0.0574
     38 CL         62.3709   89.9525   10.9439 Cl      1  UNL1       -0.0823
     39 C          62.5303   87.5848    9.8864 C.ar    1  UNL1        0.0095
@<TRIPOS>BOND
     1     8     9    1
     2     9    10    2
     3    10    11    1
     4    11    18    1
     5    18    19    2
     6    18    20   am
     7    20    22    1
     8    22    23    1
     9    23    24    1
    10    24    25    1
    11    25    26    1
    12    11    12    2
    13    12    13    1
    14    13    14    2
    15    14    15    1
    16    15     1    1
    17     1     2    1
    18     2    27    1
    19    27    29    1
    20    29    30    1
    21    30    31    1
    22    30    33    1
    23    33    34   ar
    24    34    35   ar
    25    35    36   ar
    26    36    37   ar
    27    37    38    1
    28    37    39   ar
    29     2     3    2
    30     3     4    1
    31     4     5    2
    32     5     6    1
    33     6     7    2
    34    15    16    2
    35    16    17    1
    36    17     9    1
    37    26    22    1
    38    17    13    1
    39     6     1    1
    40    39    33   ar
    41    20    21    1
    42    27    28    1
    43    31    32    1
@<TRIPOS>MOLECULE
*****
 39 43 0 0 0
SMALL
GASTEIGER

@<TRIPOS>ATOM
      1 C          71.2519   74.2064   15.5423 C.3     1  UNL1        0.2246
      2 C          72.2248   73.0681   15.6317 C.2     1  UNL1        0.0436
      3 C          71.9378   71.9055   16.5350 C.2     1  UNL1        0.0288
      4 C          70.6780   71.8810   17.3489 C.2     1  UNL1        0.0896
      5 N          69.7052   73.0192   17.2595 N.am    1  UNL1       -0.1770
      6 C          69.9922   74.1819   16.3562 C.2     1  UNL1        0.2627
      7 O          69.0194   75.3201   16.2668 O.2     1  UNL1       -0.2719
      8 C          72.7053   79.9080   14.8618 C.3     1  UNL1        0.0312
      9 C          72.4671   79.0366   13.6644 C.2     1  UNL1        0.0125
     10 C          72.5964   79.6078   12.2835 C.2     1  UNL1        0.0007
     11 C          72.3582   78.7364   11.0861 C.2     1  UNL1        0.0564
     12 C          71.9906   77.2937   11.2695 C.2     1  UNL1        0.0513
     13 C          71.8613   76.7225   12.6505 C.2     1  UNL1        0.2235
     14 N          71.5148   75.3474   13.1394 N.2     1  UNL1       -0.0378
     15 C          71.5389   75.3690   14.6391 C.2     1  UNL1        0.3605
     16 N          71.9002   76.7575   15.0769 N.2     1  UNL1       -0.0547
     17 C          72.0995   77.5940   13.8479 C.3     1  UNL1        0.2975
     18 C          72.4876   79.3076    9.7051 C.2     1  UNL1        0.2459
     19 O          73.6323   78.8961    8.8274 O.2     1  UNL1       -0.2701
     20 N          71.4722   80.2903    9.2018 N.am    1  UNL1       -0.3025
     21 H          70.7209   80.5604    9.7778 H       1  UNL1        0.1497
     22 C          71.6015   80.8615    7.8209 C.3     1  UNL1        0.0719
     23 C          71.9350   82.2844    7.4830 C.3     1  UNL1        0.0196
     24 C          71.9597   82.4125    5.9886 C.3     1  UNL1        0.0017
     25 C          71.6415   81.0687    5.4030 C.3     1  UNL1        0.0017
     26 C          71.4201   80.1102    6.5354 C.3     1  UNL1        0.0196
     27 N          73.4845   73.0925   14.8179 N.pl3   1  UNL1       -0.3329
     28 H          74.2145   73.7076   15.0589 H       1  UNL1        0.1466
     29 C          73.6322   72.1798   13.6367 C.3     1  UNL1        0.1211
     30 C          72.5328   72.0840   12.6208 C.3     1  UNL1        0.1522
     31 O          72.4912   73.0430   11.4681 O.3     1  UNL1       -0.3783
     32 H          73.2416   73.6546   11.5291 H       1  UNL1        0.2109
     33 C          71.4750   71.0294   12.7576 C.ar    1  UNL1        0.0067
     34 C          71.7243   69.8237   13.6143 C.ar    1  UNL1       -0.0018
     35 C          70.6665   68.7690   13.7510 C.ar    1  UNL1        0.0006
     36 C          69.3593   68.9200   13.0311 C.ar    1  UNL1        0.0114
     37 C          69.1100   70.1258   12.1743 C.ar    1  UNL1        0.0574
     38 CL         67.8028   70.2768   11.4543 Cl      1  UNL1       -0.0823
     39 C          70.1678   71.1804   12.0376 C.ar    1  UNL1        0.0095
@<TRIPOS>BOND
     1     8     9    1
     2     9    10    2
     3    10    11    1
     4    11    18    1
     5    18    19    2
     6    18    20   am
     7    20    22    1
     8    22    23    1
     9    23    24    1
    10    24    25    1
    11    25    26    1
    12    11    12    2
    13    12    13    1
    14    13    14    2
    15    14    15    1
    16    15     1    1
    17     1     2    1
    18     2    27    1
    19    27    29    1
    20    29    30    1
    21    30    31    1
    22    30    33    1
    23    33    34   ar
    24    34    35   ar
    25    35    36   ar
    26    36    37   ar
    27    37    38    1
    28    37    39   ar
    29     2     3    2
    30     3     4    1
    31     4     5    2
    32     5     6    1
    33     6     7    2
    34    15    16    2
    35    16    17    1
    36    17     9    1
    37    26    22    1
    38    17    13    1
    39     6     1    1
    40    39    33   ar
    41    20    21    1
    42    27    28    1
    43    31    32    1
@<TRIPOS>MOLECULE
*****
 39 43 0 0 0
SMALL
GASTEIGER

@<TRIPOS>ATOM
      1 C          62.8798   84.0188   13.3667 C.3     1  UNL1        0.2246
      2 C          63.0670   83.2281   12.1058 C.2     1  UNL1        0.0436
      3 C          62.6907   81.7766   12.0680 C.2     1  UNL1        0.0288
      4 C          62.1272   81.1157   13.2910 C.2     1  UNL1        0.0896
      5 N          61.9400   81.9063   14.5519 N.am    1  UNL1       -0.1770
      6 C          62.3163   83.3579   14.5897 C.2     1  UNL1        0.2627
      7 O          62.1291   84.1486   15.8505 O.2     1  UNL1       -0.2719
      8 C          62.4872   89.4587   11.0563 C.3     1  UNL1        0.0312
      9 C          63.3241   89.2099   12.2760 C.2     1  UNL1        0.0125
     10 C          64.0684   90.3425   12.9187 C.2     1  UNL1        0.0007
     11 C          64.9053   90.0938   14.1383 C.2     1  UNL1        0.0564
     12 C          64.9979   88.7123   14.7154 C.2     1  UNL1        0.0513
     13 C          64.2536   87.5796   14.0727 C.2     1  UNL1        0.2235
     14 N          64.1544   86.1222   14.4136 N.2     1  UNL1       -0.0378
     15 C          63.2561   85.4703   13.4046 C.2     1  UNL1        0.3605
     16 N          62.8002   86.5248   12.4401 N.2     1  UNL1       -0.0547
     17 C          63.4167   87.8284   12.8530 C.3     1  UNL1        0.2975
     18 C          65.6497   91.2265   14.7810 C.2     1  UNL1        0.2459
     19 O          64.9130   92.2271   15.6212 O.2     1  UNL1       -0.2701
     20 N          67.1307   91.3585   14.5834 N.am    1  UNL1       -0.3025
     21 H          67.6143   90.7018   14.0320 H       1  UNL1        0.1497
     22 C          67.8751   92.4912   15.2261 C.3     1  UNL1        0.0719
     23 C          69.0035   92.3613   16.2058 C.3     1  UNL1        0.0196
     24 C          69.4476   93.7424   16.5871 C.3     1  UNL1        0.0017
     25 C          68.5936   94.7258   15.8431 C.3     1  UNL1        0.0017
     26 C          67.6217   93.9525   15.0019 C.3     1  UNL1        0.0196
     27 N          63.6306   83.8889   10.8828 N.pl3   1  UNL1       -0.3329
     28 H          64.5021   84.3446   10.9269 H       1  UNL1        0.1466
     29 C          62.8662   83.8555    9.5927 C.3     1  UNL1        0.1211
     30 C          62.7662   85.0910    8.7480 C.3     1  UNL1        0.1522
     31 O          63.9378   85.5308    7.9208 O.3     1  UNL1       -0.3783
     32 H          64.6730   84.9106    8.0461 H       1  UNL1        0.2109
     33 C          61.4948   85.8867    8.7303 C.ar    1  UNL1        0.0067
     34 C          60.6192   85.8746    7.5125 C.ar    1  UNL1       -0.0018
     35 C          59.3478   86.6703    7.4949 C.ar    1  UNL1        0.0006
     36 C          58.9519   87.4782    8.6952 C.ar    1  UNL1        0.0114
     37 C          59.8275   87.4902    9.9130 C.ar    1  UNL1        0.0574
     38 CL         59.4316   88.2981   11.1133 Cl      1  UNL1       -0.0823
     39 C          61.0989   86.6946    9.9306 C.ar    1  UNL1        0.0095
@<TRIPOS>BOND
     1     8     9    1
     2     9    10    2
     3    10    11    1
     4    11    18    1
     5    18    19    2
     6    18    20   am
     7    20    22    1
     8    22    23    1
     9    23    24    1
    10    24    25    1
    11    25    26    1
    12    11    12    2
    13    12    13    1
    14    13    14    2
    15    14    15    1
    16    15     1    1
    17     1     2    1
    18     2    27    1
    19    27    29    1
    20    29    30    1
    21    30    31    1
    22    30    33    1
    23    33    34   ar
    24    34    35   ar
    25    35    36   ar
    26    36    37   ar
    27    37    38    1
    28    37    39   ar
    29     2     3    2
    30     3     4    1
    31     4     5    2
    32     5     6    1
    33     6     7    2
    34    15    16    2
    35    16    17    1
    36    17     9    1
    37    26    22    1
    38    17    13    1
    39     6     1    1
    40    39    33   ar
    41    20    21    1
    42    27    28    1
    43    31    32    1
@<TRIPOS>MOLECULE
*****
 39 43 0 0 0
SMALL
GASTEIGER

@<TRIPOS>ATOM
      1 C          63.2140   85.4056   14.3496 C.3     1  UNL1        0.2246
      2 C          62.7214   84.7172   13.1112 C.2     1  UNL1        0.0436
      3 C          62.3656   83.2606   13.1541 C.2     1  UNL1        0.0288
      4 C          62.5023   82.4924   14.4351 C.2     1  UNL1        0.0896
      5 N          62.9949   83.1808   15.6735 N.am    1  UNL1       -0.1770
      6 C          63.3507   84.6374   15.6307 C.2     1  UNL1        0.2627
      7 O          63.8433   85.3257   16.8690 O.2     1  UNL1       -0.2719
      8 C          63.6300   90.6437   17.0834 C.3     1  UNL1        0.0312
      9 C          64.0278   90.5043   15.6438 C.2     1  UNL1        0.0125
     10 C          64.5349   91.6960   14.8870 C.2     1  UNL1        0.0007
     11 C          64.9326   91.5566   13.4476 C.2     1  UNL1        0.0564
     12 C          64.8234   90.2255   12.7647 C.2     1  UNL1        0.0513
     13 C          64.3163   89.0338   13.5214 C.2     1  UNL1        0.2235
     14 N          64.1008   87.6055   13.1172 N.2     1  UNL1       -0.0378
     15 C          63.5698   86.8621   14.3069 C.2     1  UNL1        0.3605
     16 N          63.4572   87.8310   15.4464 N.2     1  UNL1       -0.0547
     17 C          63.9185   89.1732   14.9610 C.3     1  UNL1        0.2975
     18 C          65.4397   92.7484   12.6908 C.2     1  UNL1        0.2459
     19 O          65.9010   93.9675   13.4330 O.2     1  UNL1       -0.2701
     20 N          65.4855   92.7210   11.1917 N.am    1  UNL1       -0.3025
     21 H          65.1828   91.9209   10.7045 H       1  UNL1        0.1497
     22 C          65.9926   93.9127   10.4349 C.3     1  UNL1        0.0719
     23 C          65.3791   95.2815   10.4318 C.3     1  UNL1        0.0196
     24 C          66.2095   96.1597    9.5433 C.3     1  UNL1        0.0017
     25 C          67.3362   95.3336    8.9974 C.3     1  UNL1        0.0017
     26 C          67.2022   93.9449    9.5485 C.3     1  UNL1        0.0196
     27 N          62.5847   85.4853   11.8302 N.pl3   1  UNL1       -0.3329
     28 H          62.3885   86.4498   11.8531 H       1  UNL1        0.1466
     29 C          62.7467   84.7840   10.5142 C.3     1  UNL1        0.1211
     30 C          62.5846   85.5469    9.2328 C.3     1  UNL1        0.1522
     31 O          63.2302   85.0459    7.9749 O.3     1  UNL1       -0.3783
     32 H          63.7106   84.2245    8.1630 H       1  UNL1        0.2109
     33 C          61.7770   86.8107    9.2094 C.ar    1  UNL1        0.0067
     34 C          60.4262   86.8256    8.5574 C.ar    1  UNL1       -0.0018
     35 C          59.6186   88.0894    8.5340 C.ar    1  UNL1        0.0006
     36 C          60.1618   89.3383    9.1627 C.ar    1  UNL1        0.0114
     37 C          61.5125   89.3234    9.8147 C.ar    1  UNL1        0.0574
     38 CL         62.0557   90.5723   10.4433 Cl      1  UNL1       -0.0823
     39 C          62.3201   88.0596    9.8381 C.ar    1  UNL1        0.0095
@<TRIPOS>BOND
     1     8     9    1
     2     9    10    2
     3    10    11    1
     4    11    18    1
     5    18    19    2
     6    18    20   am
     7    20    22    1
     8    22    23    1
     9    23    24    1
    10    24    25    1
    11    25    26    1
    12    11    12    2
    13    12    13    1
    14    13    14    2
    15    14    15    1
    16    15     1    1
    17     1     2    1
    18     2    27    1
    19    27    29    1
    20    29    30    1
    21    30    31    1
    22    30    33    1
    23    33    34   ar
    24    34    35   ar
    25    35    36   ar
    26    36    37   ar
    27    37    38    1
    28    37    39   ar
    29     2     3    2
    30     3     4    1
    31     4     5    2
    32     5     6    1
    33     6     7    2
    34    15    16    2
    35    16    17    1
    36    17     9    1
    37    26    22    1
    38    17    13    1
    39     6     1    1
    40    39    33   ar
    41    20    21    1
    42    27    28    1
    43    31    32    1
