@<TRIPOS>MOLECULE
*****
 38 40 0 0 0
SMALL
GASTEIGER

@<TRIPOS>ATOM
      1 C          63.2192   91.4460   10.0789 C.3     1  UNL1        0.0174
      2 C          63.5111   91.1266   11.5151 C.3     1  UNL1        0.0587
      3 N          62.5695   90.2595   12.2970 N.3     1  UNL1       -0.2935
      4 H          61.6327   90.6357   12.1509 H       1  UNL1        0.1236
      5 C          62.4943   88.7884   12.0138 C.3     1  UNL1        0.1119
      6 C          61.3618   89.0299   11.0603 C.3     1  UNL1        0.0251
      7 C          63.6268   88.5470   12.9672 C.3     1  UNL1        0.0251
      8 C          62.4191   87.3173   11.7305 C.2     1  UNL1        0.2397
      9 O          61.6561   86.8212   10.5381 O.2     1  UNL1       -0.2734
     10 N          63.1068   86.3423   12.6396 N.am    1  UNL1       -0.2683
     11 H          63.6076   86.6679   13.4222 H       1  UNL1        0.1563
     12 C          63.0316   84.8712   12.3563 C.ar    1  UNL1        0.1342
     13 C          63.4539   84.3426   11.0175 C.ar    1  UNL1        0.0344
     14 C          63.3787   82.8716   10.7343 C.ar    1  UNL1        0.0083
     15 C          62.8811   81.9291   11.7898 C.ar    1  UNL1        0.0906
     16 C          62.4588   82.4576   13.1286 C.ar    1  UNL1        0.1041
     17 N          62.5340   83.9287   13.4118 N.ar    1  UNL1       -0.2291
     18 C          62.8059   80.4579   11.5065 C.3     1  UNL1        0.4200
     19 F          62.7307   78.9869   11.2232 F       1  UNL1       -0.1658
     20 F          62.5539   80.1907   12.9609 F       1  UNL1       -0.1658
     21 F          63.0579   80.7251   10.0522 F       1  UNL1       -0.1658
     22 C          64.7447   91.6744   12.1695 C.3     1  UNL1        0.0411
     23 C          65.6507   92.5966   11.4087 C.ar    1  UNL1       -0.0202
     24 C          65.5387   94.0806   11.5955 C.ar    1  UNL1       -0.0042
     25 C          66.4448   95.0028   10.8348 C.ar    1  UNL1        0.0004
     26 C          67.4628   94.4409    9.8873 C.ar    1  UNL1        0.0103
     27 C          67.5748   92.9567    9.7005 C.ar    1  UNL1        0.0681
     28 C          66.6688   92.0346   10.4612 C.ar    1  UNL1        0.0061
     29 C          68.5928   92.3948    8.7529 C.1     1  UNL1        0.1004
     30 N          69.6109   91.8329    7.8053 N.1     1  UNL1       -0.1908
     31 C          65.0723   91.3001   13.5847 C.3     1  UNL1        0.0320
     32 C          66.2684   91.9008   14.2617 C.ar    1  UNL1       -0.0218
     33 C          67.6347   91.7206   13.6694 C.ar    1  UNL1       -0.0034
     34 C          68.8308   92.3213   14.3464 C.ar    1  UNL1        0.0111
     35 C          68.6607   93.1023   15.6157 C.ar    1  UNL1        0.0577
     36 CL         69.8568   93.7030   16.2928 Cl      1  UNL1       -0.0822
     37 C          67.2944   93.2825   16.2080 C.ar    1  UNL1        0.0111
     38 C          66.0982   92.6818   15.5310 C.ar    1  UNL1       -0.0034
@<TRIPOS>BOND
     1     2     1    1
     2     2     3    1
     3     3     5    1
     4     5     6    1
     5     5     7    1
     6     5     8    1
     7     8     9    2
     8     8    10   am
     9    10    12    1
    10    12    13   ar
    11    13    14   ar
    12    14    15   ar
    13    15    18    1
    14    18    19    1
    15    18    20    1
    16    18    21    1
    17    15    16   ar
    18    16    17   ar
    19     2    22    1
    20    22    31    1
    21    31    32    1
    22    32    33   ar
    23    33    34   ar
    24    34    35   ar
    25    35    36    1
    26    35    37   ar
    27    37    38   ar
    28    22    23    1
    29    23    24   ar
    30    24    25   ar
    31    25    26   ar
    32    26    27   ar
    33    27    29    1
    34    29    30    3
    35    27    28   ar
    36    17    12   ar
    37    38    32   ar
    38    28    23   ar
    39     3     4    1
    40    10    11    1
@<TRIPOS>MOLECULE
*****
 38 40 0 0 0
SMALL
GASTEIGER

@<TRIPOS>ATOM
      1 C          63.9322   91.6196   12.6238 C.3     1  UNL1        0.0174
      2 C          63.2100   90.7193   13.5819 C.3     1  UNL1        0.0587
      3 N          61.9149   90.0791   13.1783 N.3     1  UNL1       -0.2935
      4 H          61.2169   90.8221   13.1452 H       1  UNL1        0.1236
      5 C          61.8185   89.3362   11.8789 C.3     1  UNL1        0.1119
      6 C          63.0796   88.5944   12.2093 C.3     1  UNL1        0.0251
      7 C          60.5573   90.0779   11.5484 C.3     1  UNL1        0.0251
      8 C          61.7220   88.5931   10.5793 C.2     1  UNL1        0.2397
      9 O          61.3275   89.3195    9.3276 O.2     1  UNL1       -0.2734
     10 N          62.0201   87.1239   10.5316 N.am    1  UNL1       -0.2683
     11 H          62.2790   86.6472   11.3531 H       1  UNL1        0.1563
     12 C          61.9236   86.3808    9.2320 C.ar    1  UNL1        0.1342
     13 C          63.1183   85.6493    8.6959 C.ar    1  UNL1        0.0344
     14 C          63.0218   84.9063    7.3965 C.ar    1  UNL1        0.0083
     15 C          61.7306   84.8949    6.6331 C.ar    1  UNL1        0.0906
     16 C          60.5359   85.6265    7.1692 C.ar    1  UNL1        0.1041
     17 N          60.6324   86.3694    8.4687 N.ar    1  UNL1       -0.2291
     18 C          61.6342   84.1519    5.3336 C.3     1  UNL1        0.4200
     19 F          61.5378   83.4089    4.0341 F       1  UNL1       -0.1658
     20 F          60.4544   83.3882    5.8578 F       1  UNL1       -0.1658
     21 F          62.8139   84.9157    4.8094 F       1  UNL1       -0.1658
     22 C          63.7830   90.4593   14.9435 C.3     1  UNL1        0.0411
     23 C          63.6686   89.0954   15.5574 C.ar    1  UNL1       -0.0202
     24 C          62.9960   88.9256   16.8873 C.ar    1  UNL1       -0.0042
     25 C          62.8817   87.5617   17.5012 C.ar    1  UNL1        0.0004
     26 C          63.4398   86.3677   16.7851 C.ar    1  UNL1        0.0103
     27 C          64.1125   86.5376   15.4551 C.ar    1  UNL1        0.0681
     28 C          64.2268   87.9014   14.8412 C.ar    1  UNL1        0.0061
     29 C          64.6706   85.3436   14.7390 C.1     1  UNL1        0.1004
     30 N          65.2289   84.1495   14.0230 N.1     1  UNL1       -0.1908
     31 C          64.4704   91.5631   15.6913 C.3     1  UNL1        0.0320
     32 C          65.9062   91.8852   15.4005 C.ar    1  UNL1       -0.0218
     33 C          66.5573   91.3537   14.1581 C.ar    1  UNL1       -0.0034
     34 C          67.9932   91.6758   13.8673 C.ar    1  UNL1        0.0111
     35 C          68.7779   92.5294   14.8189 C.ar    1  UNL1        0.0577
     36 CL         70.2137   92.8515   14.5281 Cl      1  UNL1       -0.0822
     37 C          68.1268   93.0609   16.0612 C.ar    1  UNL1        0.0111
     38 C          66.6909   92.7388   16.3521 C.ar    1  UNL1       -0.0034
@<TRIPOS>BOND
     1     2     1    1
     2     2     3    1
     3     3     5    1
     4     5     6    1
     5     5     7    1
     6     5     8    1
     7     8     9    2
     8     8    10   am
     9    10    12    1
    10    12    13   ar
    11    13    14   ar
    12    14    15   ar
    13    15    18    1
    14    18    19    1
    15    18    20    1
    16    18    21    1
    17    15    16   ar
    18    16    17   ar
    19     2    22    1
    20    22    31    1
    21    31    32    1
    22    32    33   ar
    23    33    34   ar
    24    34    35   ar
    25    35    36    1
    26    35    37   ar
    27    37    38   ar
    28    22    23    1
    29    23    24   ar
    30    24    25   ar
    31    25    26   ar
    32    26    27   ar
    33    27    29    1
    34    29    30    3
    35    27    28   ar
    36    17    12   ar
    37    38    32   ar
    38    28    23   ar
    39     3     4    1
    40    10    11    1
@<TRIPOS>MOLECULE
*****
 38 40 0 0 0
SMALL
GASTEIGER

@<TRIPOS>ATOM
      1 C          63.4898   91.5201   10.0747 C.3     1  UNL1        0.0174
      2 C          63.0760   90.9739   11.4090 C.3     1  UNL1        0.0587
      3 N          61.7877   90.2173   11.5429 N.3     1  UNL1       -0.2935
      4 H          61.1580   90.5789   10.8266 H       1  UNL1        0.1236
      5 C          61.7785   88.7230   11.4131 C.3     1  UNL1        0.1119
      6 C          62.7675   88.8145   10.2891 C.3     1  UNL1        0.0251
      7 C          60.7895   88.6314   12.5371 C.3     1  UNL1        0.0251
      8 C          61.7694   87.2286   11.2833 C.2     1  UNL1        0.2397
      9 O          60.7144   86.5540   10.4575 O.2     1  UNL1       -0.2734
     10 N          62.8152   86.4089   11.9792 N.am    1  UNL1       -0.2683
     11 H          63.5076   86.8517   12.5211 H       1  UNL1        0.1563
     12 C          62.8060   84.9145   11.8493 C.ar    1  UNL1        0.1342
     13 C          63.2069   84.2717   10.5548 C.ar    1  UNL1        0.0344
     14 C          63.1978   82.7774   10.4250 C.ar    1  UNL1        0.0083
     15 C          62.7877   81.9259   11.5898 C.ar    1  UNL1        0.0906
     16 C          62.3868   82.5687   12.8844 C.ar    1  UNL1        0.1041
     17 N          62.3960   84.0630   13.0142 N.ar    1  UNL1       -0.2291
     18 C          62.7786   80.4315   11.4600 C.3     1  UNL1        0.4200
     19 F          62.7695   78.9372   11.3301 F       1  UNL1       -0.1658
     20 F          62.5172   80.3052   12.9316 F       1  UNL1       -0.1658
     21 F          63.0399   80.5578    9.9884 F       1  UNL1       -0.1658
     22 C          63.9505   91.1842   12.6094 C.3     1  UNL1        0.0411
     23 C          63.8345   90.2683   13.7916 C.ar    1  UNL1       -0.0202
     24 C          63.2251   90.7657   15.0687 C.ar    1  UNL1       -0.0042
     25 C          63.1091   89.8497   16.2509 C.ar    1  UNL1        0.0004
     26 C          63.6025   88.4364   16.1560 C.ar    1  UNL1        0.0103
     27 C          64.2119   87.9390   14.8788 C.ar    1  UNL1        0.0681
     28 C          64.3279   88.8549   13.6965 C.ar    1  UNL1        0.0061
     29 C          64.7053   86.5257   14.7838 C.1     1  UNL1        0.1004
     30 N          65.1987   85.1123   14.6888 N.1     1  UNL1       -0.1908
     31 C          64.9410   92.3106   12.6276 C.3     1  UNL1        0.0320
     32 C          66.0608   92.3085   13.6255 C.ar    1  UNL1       -0.0218
     33 C          65.8062   92.7399   15.0394 C.ar    1  UNL1       -0.0034
     34 C          66.9261   92.7378   16.0374 C.ar    1  UNL1        0.0111
     35 C          68.3005   92.3042   15.6215 C.ar    1  UNL1        0.0577
     36 CL         69.4203   92.3021   16.6194 Cl      1  UNL1       -0.0822
     37 C          68.5551   91.8728   14.2077 C.ar    1  UNL1        0.0111
     38 C          67.4353   91.8749   13.2096 C.ar    1  UNL1       -0.0034
@<TRIPOS>BOND
     1     2     1    1
     2     2     3    1
     3     3     5    1
     4     5     6    1
     5     5     7    1
     6     5     8    1
     7     8     9    2
     8     8    10   am
     9    10    12    1
    10    12    13   ar
    11    13    14   ar
    12    14    15   ar
    13    15    18    1
    14    18    19    1
    15    18    20    1
    16    18    21    1
    17    15    16   ar
    18    16    17   ar
    19     2    22    1
    20    22    31    1
    21    31    32    1
    22    32    33   ar
    23    33    34   ar
    24    34    35   ar
    25    35    36    1
    26    35    37   ar
    27    37    38   ar
    28    22    23    1
    29    23    24   ar
    30    24    25   ar
    31    25    26   ar
    32    26    27   ar
    33    27    29    1
    34    29    30    3
    35    27    28   ar
    36    17    12   ar
    37    38    32   ar
    38    28    23   ar
    39     3     4    1
    40    10    11    1
@<TRIPOS>MOLECULE
*****
 38 40 0 0 0
SMALL
GASTEIGER

@<TRIPOS>ATOM
      1 C          59.7335   87.9603   11.6282 C.3     1  UNL1        0.0174
      2 C          61.0809   88.4846   11.2285 C.3     1  UNL1        0.0587
      3 N          61.3071   89.9631   11.1158 N.3     1  UNL1       -0.2935
      4 H          60.5074   90.4178   11.5564 H       1  UNL1        0.1236
      5 C          62.5380   90.5810   11.7099 C.3     1  UNL1        0.1119
      6 C          62.0958   90.1481   13.0763 C.3     1  UNL1        0.0251
      7 C          62.9803   91.0139   10.3435 C.3     1  UNL1        0.0251
      8 C          63.7690   91.1989   12.3041 C.2     1  UNL1        0.2397
      9 O          64.6540   92.0678   11.4605 O.2     1  UNL1       -0.2734
     10 N          64.1150   90.9477   13.7419 N.am    1  UNL1       -0.2683
     11 H          63.5342   90.3774   14.2956 H       1  UNL1        0.1563
     12 C          65.3460   91.5656   14.3361 C.ar    1  UNL1        0.1342
     13 C          66.6398   91.5381   13.5777 C.ar    1  UNL1        0.0344
     14 C          67.8707   92.1559   14.1719 C.ar    1  UNL1        0.0083
     15 C          67.8078   92.8013   15.5245 C.ar    1  UNL1        0.0906
     16 C          66.5139   92.8288   16.2829 C.ar    1  UNL1        0.1041
     17 N          65.2831   92.2110   15.6887 N.ar    1  UNL1       -0.2291
     18 C          69.0388   93.4192   16.1187 C.3     1  UNL1        0.4200
     19 F          70.2697   94.0370   16.7128 F       1  UNL1       -0.1658
     20 F          69.5496   92.0555   16.4785 F       1  UNL1       -0.1658
     21 F          68.5279   94.7828   15.7589 F       1  UNL1       -0.1658
     22 C          62.2020   87.5303   10.9416 C.3     1  UNL1        0.0411
     23 C          62.7094   86.6225   12.0226 C.ar    1  UNL1       -0.0202
     24 C          63.5551   87.1758   13.1309 C.ar    1  UNL1       -0.0042
     25 C          64.0626   86.2680   14.2119 C.ar    1  UNL1        0.0004
     26 C          63.7242   84.8069   14.1845 C.ar    1  UNL1        0.0103
     27 C          62.8785   84.2536   13.0760 C.ar    1  UNL1        0.0681
     28 C          62.3710   85.1614   11.9951 C.ar    1  UNL1        0.0061
     29 C          62.5401   82.7925   13.0486 C.1     1  UNL1        0.1004
     30 N          62.2017   81.3314   13.0212 N.1     1  UNL1       -0.1908
     31 C          62.8158   87.4838    9.5737 C.3     1  UNL1        0.0320
     32 C          62.3154   86.4975    8.5603 C.ar    1  UNL1       -0.0218
     33 C          63.2584   85.4998    7.9555 C.ar    1  UNL1       -0.0034
     34 C          62.7580   84.5136    6.9422 C.ar    1  UNL1        0.0111
     35 C          61.3148   84.5249    6.5336 C.ar    1  UNL1        0.0577
     36 CL         60.8145   83.5386    5.5202 Cl      1  UNL1       -0.0822
     37 C          60.3719   85.5225    7.1383 C.ar    1  UNL1        0.0111
     38 C          60.8722   86.5088    8.1517 C.ar    1  UNL1       -0.0034
@<TRIPOS>BOND
     1     2     1    1
     2     2     3    1
     3     3     5    1
     4     5     6    1
     5     5     7    1
     6     5     8    1
     7     8     9    2
     8     8    10   am
     9    10    12    1
    10    12    13   ar
    11    13    14   ar
    12    14    15   ar
    13    15    18    1
    14    18    19    1
    15    18    20    1
    16    18    21    1
    17    15    16   ar
    18    16    17   ar
    19     2    22    1
    20    22    31    1
    21    31    32    1
    22    32    33   ar
    23    33    34   ar
    24    34    35   ar
    25    35    36    1
    26    35    37   ar
    27    37    38   ar
    28    22    23    1
    29    23    24   ar
    30    24    25   ar
    31    25    26   ar
    32    26    27   ar
    33    27    29    1
    34    29    30    3
    35    27    28   ar
    36    17    12   ar
    37    38    32   ar
    38    28    23   ar
    39     3     4    1
    40    10    11    1
@<TRIPOS>MOLECULE
*****
 38 40 0 0 0
SMALL
GASTEIGER

@<TRIPOS>ATOM
      1 C          61.9245   89.3820   15.5376 C.3     1  UNL1        0.0174
      2 C          63.1924   89.3881   14.7362 C.3     1  UNL1        0.0587
      3 N          64.2658   88.3803   15.0231 N.3     1  UNL1       -0.2935
      4 H          64.3810   88.3531   16.0362 H       1  UNL1        0.1236
      5 C          64.1025   86.9605   14.5677 C.3     1  UNL1        0.1119
      6 C          63.9030   87.4353   13.1589 C.3     1  UNL1        0.0251
      7 C          64.3020   86.4856   15.9764 C.3     1  UNL1        0.0251
      8 C          63.9393   85.5406   14.1122 C.2     1  UNL1        0.2397
      9 O          64.3092   84.4119   15.0282 O.2     1  UNL1       -0.2734
     10 N          63.4062   85.2495   12.7407 N.am    1  UNL1       -0.2683
     11 H          63.1634   85.9904   12.1395 H       1  UNL1        0.1563
     12 C          63.2429   83.8297   12.2852 C.ar    1  UNL1        0.1342
     13 C          63.8299   83.3895   10.9769 C.ar    1  UNL1        0.0344
     14 C          63.6666   81.9697   10.5214 C.ar    1  UNL1        0.0083
     15 C          62.9164   80.9901   11.3743 C.ar    1  UNL1        0.0906
     16 C          62.3294   81.4302   12.6826 C.ar    1  UNL1        0.1041
     17 N          62.4927   82.8500   13.1381 N.ar    1  UNL1       -0.2291
     18 C          62.7531   79.5702   10.9188 C.3     1  UNL1        0.4200
     19 F          62.5898   78.1504   10.4634 F       1  UNL1       -0.1658
     20 F          63.0089   79.9949    9.5032 F       1  UNL1       -0.1658
     21 F          62.4973   79.1455   12.3345 F       1  UNL1       -0.1658
     22 C          63.3870   90.4019   13.6481 C.3     1  UNL1        0.0411
     23 C          64.7143   91.0814   13.4847 C.ar    1  UNL1       -0.0202
     24 C          65.7275   91.0235   14.5892 C.ar    1  UNL1       -0.0042
     25 C          67.0548   91.7030   14.4258 C.ar    1  UNL1        0.0004
     26 C          67.3688   92.4403   13.1578 C.ar    1  UNL1        0.0103
     27 C          66.3555   92.4982   12.0532 C.ar    1  UNL1        0.0681
     28 C          65.0283   91.8188   12.2167 C.ar    1  UNL1        0.0061
     29 C          66.6696   93.2356   10.7853 C.1     1  UNL1        0.1004
     30 N          66.9837   93.9730    9.5174 N.1     1  UNL1       -0.1908
     31 C          62.2543   90.7363   12.7232 C.3     1  UNL1        0.0320
     32 C          61.7433   89.7062   11.7602 C.ar    1  UNL1       -0.0218
     33 C          62.6233   89.2170   10.6483 C.ar    1  UNL1       -0.0034
     34 C          62.1122   88.1868    9.6852 C.ar    1  UNL1        0.0111
     35 C          60.7211   87.6458    9.8340 C.ar    1  UNL1        0.0577
     36 CL         60.2101   86.6156    8.8710 Cl      1  UNL1       -0.0822
     37 C          59.8411   88.1349   10.9459 C.ar    1  UNL1        0.0111
     38 C          60.3522   89.1651   11.9090 C.ar    1  UNL1       -0.0034
@<TRIPOS>BOND
     1     2     1    1
     2     2     3    1
     3     3     5    1
     4     5     6    1
     5     5     7    1
     6     5     8    1
     7     8     9    2
     8     8    10   am
     9    10    12    1
    10    12    13   ar
    11    13    14   ar
    12    14    15   ar
    13    15    18    1
    14    18    19    1
    15    18    20    1
    16    18    21    1
    17    15    16   ar
    18    16    17   ar
    19     2    22    1
    20    22    31    1
    21    31    32    1
    22    32    33   ar
    23    33    34   ar
    24    34    35   ar
    25    35    36    1
    26    35    37   ar
    27    37    38   ar
    28    22    23    1
    29    23    24   ar
    30    24    25   ar
    31    25    26   ar
    32    26    27   ar
    33    27    29    1
    34    29    30    3
    35    27    28   ar
    36    17    12   ar
    37    38    32   ar
    38    28    23   ar
    39     3     4    1
    40    10    11    1
@<TRIPOS>MOLECULE
*****
 38 40 0 0 0
SMALL
GASTEIGER

@<TRIPOS>ATOM
      1 C          61.9899   89.3619   15.7121 C.3     1  UNL1        0.0174
      2 C          63.1362   89.3585   14.7447 C.3     1  UNL1        0.0587
      3 N          64.2721   88.3968   14.9311 N.3     1  UNL1       -0.2935
      4 H          64.4765   88.3726   15.9302 H       1  UNL1        0.1236
      5 C          64.1298   86.9722   14.4837 C.3     1  UNL1        0.1119
      6 C          64.3734   86.5066   15.8886 C.3     1  UNL1        0.0251
      7 C          63.8861   87.4378   13.0788 C.3     1  UNL1        0.0251
      8 C          63.9874   85.5475   14.0362 C.2     1  UNL1        0.2397
      9 O          64.5134   84.4357   14.8948 O.2     1  UNL1       -0.2734
     10 N          63.3192   85.2348   12.7303 N.am    1  UNL1       -0.2683
     11 H          62.9740   85.9645   12.1668 H       1  UNL1        0.1563
     12 C          63.1768   83.8101   12.2828 C.ar    1  UNL1        0.1342
     13 C          63.7349   83.3806   10.9584 C.ar    1  UNL1        0.0344
     14 C          63.5925   81.9560   10.5111 C.ar    1  UNL1        0.0083
     15 C          62.8921   80.9609   11.3881 C.ar    1  UNL1        0.0906
     16 C          62.3341   81.3903   12.7125 C.ar    1  UNL1        0.1041
     17 N          62.4765   82.8150   13.1599 N.ar    1  UNL1       -0.2291
     18 C          62.7498   79.5362   10.9407 C.3     1  UNL1        0.4200
     19 F          62.6075   78.1116   10.4932 F       1  UNL1       -0.1658
     20 F          62.4497   79.1232   12.3511 F       1  UNL1       -0.1658
     21 F          63.0499   79.9492    9.5303 F       1  UNL1       -0.1658
     22 C          63.1467   90.3169   13.5909 C.3     1  UNL1        0.0411
     23 C          64.3924   91.0870   13.2668 C.ar    1  UNL1       -0.0202
     24 C          64.5650   91.6965   11.9071 C.ar    1  UNL1       -0.0042
     25 C          65.8108   92.4666   11.5830 C.ar    1  UNL1        0.0004
     26 C          66.8840   92.6271   12.6186 C.ar    1  UNL1        0.0103
     27 C          66.7114   92.0176   13.9783 C.ar    1  UNL1        0.0681
     28 C          65.4657   91.2475   14.3024 C.ar    1  UNL1        0.0061
     29 C          67.7847   92.1782   15.0138 C.1     1  UNL1        0.1004
     30 N          68.8579   92.3387   16.0495 N.1     1  UNL1       -0.1908
     31 C          61.9113   90.5053   12.7611 C.3     1  UNL1        0.0320
     32 C          61.5574   89.5014   11.7043 C.ar    1  UNL1       -0.0218
     33 C          60.1582   88.9681   11.6148 C.ar    1  UNL1       -0.0034
     34 C          59.8043   87.9642   10.5580 C.ar    1  UNL1        0.0111
     35 C          60.8496   87.4936    9.5905 C.ar    1  UNL1        0.0577
     36 CL         60.4957   86.4897    8.5337 Cl      1  UNL1       -0.0822
     37 C          62.2487   88.0269    9.6799 C.ar    1  UNL1        0.0111
     38 C          62.6027   89.0308   10.7368 C.ar    1  UNL1       -0.0034
@<TRIPOS>BOND
     1     2     1    1
     2     2     3    1
     3     3     5    1
     4     5     6    1
     5     5     7    1
     6     5     8    1
     7     8     9    2
     8     8    10   am
     9    10    12    1
    10    12    13   ar
    11    13    14   ar
    12    14    15   ar
    13    15    18    1
    14    18    19    1
    15    18    20    1
    16    18    21    1
    17    15    16   ar
    18    16    17   ar
    19     2    22    1
    20    22    31    1
    21    31    32    1
    22    32    33   ar
    23    33    34   ar
    24    34    35   ar
    25    35    36    1
    26    35    37   ar
    27    37    38   ar
    28    22    23    1
    29    23    24   ar
    30    24    25   ar
    31    25    26   ar
    32    26    27   ar
    33    27    29    1
    34    29    30    3
    35    27    28   ar
    36    17    12   ar
    37    38    32   ar
    38    28    23   ar
    39     3     4    1
    40    10    11    1
@<TRIPOS>MOLECULE
*****
 38 40 0 0 0
SMALL
GASTEIGER

@<TRIPOS>ATOM
      1 C          67.0385   91.6357   14.5792 C.3     1  UNL1        0.0174
      2 C          65.5743   91.5086   14.2795 C.3     1  UNL1        0.0587
      3 N          64.6408   90.9619   15.3186 N.3     1  UNL1       -0.2935
      4 H          63.7726   91.4918   15.2425 H       1  UNL1        0.1236
      5 C          64.2649   89.5099   15.2995 C.3     1  UNL1        0.1119
      6 C          63.1428   89.7878   16.2552 C.3     1  UNL1        0.0251
      7 C          65.3871   89.2319   14.3438 C.3     1  UNL1        0.0251
      8 C          63.8890   88.0578   15.2805 C.2     1  UNL1        0.2397
      9 O          63.1501   87.4592   16.4405 O.2     1  UNL1       -0.2734
     10 N          64.2520   87.2045   14.1015 N.am    1  UNL1       -0.2683
     11 H          64.7370   87.5974   13.3402 H       1  UNL1        0.1563
     12 C          63.8761   85.7524   14.0825 C.ar    1  UNL1        0.1342
     13 C          63.1012   85.1934   12.9262 C.ar    1  UNL1        0.0344
     14 C          62.7253   83.7414   12.9072 C.ar    1  UNL1        0.0083
     15 C          63.1243   82.8485   14.0446 C.ar    1  UNL1        0.0906
     16 C          63.8991   83.4075   15.2008 C.ar    1  UNL1        0.1041
     17 N          64.2750   84.8595   15.2198 N.ar    1  UNL1       -0.2291
     18 C          62.7484   81.3964   14.0255 C.3     1  UNL1        0.4200
     19 F          62.3724   79.9445   14.0065 F       1  UNL1       -0.1658
     20 F          64.1650   81.0340   13.6912 F       1  UNL1       -0.1658
     21 F          61.3318   81.7588   14.3599 F       1  UNL1       -0.1658
     22 C          65.0436   91.9284   12.9408 C.3     1  UNL1        0.0411
     23 C          65.9828   92.4367   11.8875 C.ar    1  UNL1       -0.0202
     24 C          67.2014   91.6420   11.5226 C.ar    1  UNL1       -0.0042
     25 C          68.1406   92.1503   10.4692 C.ar    1  UNL1        0.0004
     26 C          67.8611   93.4533    9.7808 C.ar    1  UNL1        0.0103
     27 C          66.6424   94.2481   10.1457 C.ar    1  UNL1        0.0681
     28 C          65.7032   93.7398   11.1990 C.ar    1  UNL1        0.0061
     29 C          66.3629   95.5511    9.4572 C.1     1  UNL1        0.1004
     30 N          66.0834   96.8542    8.7688 N.1     1  UNL1       -0.1908
     31 C          63.5736   91.8398   12.6554 C.3     1  UNL1        0.0320
     32 C          63.0473   90.7574   11.7602 C.ar    1  UNL1       -0.0218
     33 C          62.7506   89.3982   12.3212 C.ar    1  UNL1       -0.0034
     34 C          62.2243   88.3159   11.4260 C.ar    1  UNL1        0.0111
     35 C          61.9947   88.5926    9.9697 C.ar    1  UNL1        0.0577
     36 CL         61.4684   87.5103    9.0745 Cl      1  UNL1       -0.0822
     37 C          62.2913   89.9517    9.4087 C.ar    1  UNL1        0.0111
     38 C          62.8177   91.0342   10.3040 C.ar    1  UNL1       -0.0034
@<TRIPOS>BOND
     1     2     1    1
     2     2     3    1
     3     3     5    1
     4     5     6    1
     5     5     7    1
     6     5     8    1
     7     8     9    2
     8     8    10   am
     9    10    12    1
    10    12    13   ar
    11    13    14   ar
    12    14    15   ar
    13    15    18    1
    14    18    19    1
    15    18    20    1
    16    18    21    1
    17    15    16   ar
    18    16    17   ar
    19     2    22    1
    20    22    31    1
    21    31    32    1
    22    32    33   ar
    23    33    34   ar
    24    34    35   ar
    25    35    36    1
    26    35    37   ar
    27    37    38   ar
    28    22    23    1
    29    23    24   ar
    30    24    25   ar
    31    25    26   ar
    32    26    27   ar
    33    27    29    1
    34    29    30    3
    35    27    28   ar
    36    17    12   ar
    37    38    32   ar
    38    28    23   ar
    39     3     4    1
    40    10    11    1
@<TRIPOS>MOLECULE
*****
 38 40 0 0 0
SMALL
GASTEIGER

@<TRIPOS>ATOM
      1 C          67.0003   91.5440   14.3614 C.3     1  UNL1        0.0174
      2 C          65.5077   91.5570   14.2133 C.3     1  UNL1        0.0587
      3 N          64.6413   90.9924   15.2998 N.3     1  UNL1       -0.2935
      4 H          63.7711   91.5245   15.2889 H       1  UNL1        0.1236
      5 C          64.2619   89.5414   15.2788 C.3     1  UNL1        0.1119
      6 C          63.1611   89.8150   16.2602 C.3     1  UNL1        0.0251
      7 C          65.3628   89.2678   14.2973 C.3     1  UNL1        0.0251
      8 C          63.8825   88.0903   15.2577 C.2     1  UNL1        0.2397
      9 O          63.0987   87.5035   16.3941 O.2     1  UNL1       -0.2734
     10 N          64.2869   87.2261   14.1003 N.am    1  UNL1       -0.2683
     11 H          64.8013   87.6112   13.3545 H       1  UNL1        0.1563
     12 C          63.9074   85.7749   14.0793 C.ar    1  UNL1        0.1342
     13 C          64.5727   84.8121   15.0175 C.ar    1  UNL1        0.0344
     14 C          64.1933   83.3611   14.9964 C.ar    1  UNL1        0.0083
     15 C          63.1486   82.8729   14.0371 C.ar    1  UNL1        0.0906
     16 C          62.4833   83.8357   13.0989 C.ar    1  UNL1        0.1041
     17 N          62.8627   85.2868   13.1200 N.ar    1  UNL1       -0.2291
     18 C          62.7691   81.4218   14.0161 C.3     1  UNL1        0.4200
     19 F          62.3898   79.9707   13.9950 F       1  UNL1       -0.1658
     20 F          61.4271   81.7643   14.5918 F       1  UNL1       -0.1658
     21 F          64.1112   81.0792   13.4403 F       1  UNL1       -0.1658
     22 C          64.8816   92.1346   12.9787 C.3     1  UNL1        0.0411
     23 C          65.7124   92.9366   12.0213 C.ar    1  UNL1       -0.0202
     24 C          65.6923   94.4351   12.0841 C.ar    1  UNL1       -0.0042
     25 C          66.5231   95.2371   11.1267 C.ar    1  UNL1        0.0004
     26 C          67.3739   94.5406   10.1065 C.ar    1  UNL1        0.0103
     27 C          67.3940   93.0420   10.0437 C.ar    1  UNL1        0.0681
     28 C          66.5632   92.2400   11.0010 C.ar    1  UNL1        0.0061
     29 C          68.2449   92.3455    9.0234 C.1     1  UNL1        0.1004
     30 N          69.0957   91.6489    8.0032 N.1     1  UNL1       -0.1908
     31 C          63.4246   91.9101   12.7014 C.3     1  UNL1        0.0320
     32 C          62.9960   90.7855   11.8062 C.ar    1  UNL1       -0.0218
     33 C          63.1112   90.9265   10.3172 C.ar    1  UNL1       -0.0034
     34 C          62.6826   89.8019    9.4220 C.ar    1  UNL1        0.0111
     35 C          62.1389   88.5362   10.0156 C.ar    1  UNL1        0.0577
     36 CL         61.7104   87.4115    9.1204 Cl      1  UNL1       -0.0822
     37 C          62.0238   88.3951   11.5045 C.ar    1  UNL1        0.0111
     38 C          62.4523   89.5198   12.3998 C.ar    1  UNL1       -0.0034
@<TRIPOS>BOND
     1     2     1    1
     2     2     3    1
     3     3     5    1
     4     5     6    1
     5     5     7    1
     6     5     8    1
     7     8     9    2
     8     8    10   am
     9    10    12    1
    10    12    13   ar
    11    13    14   ar
    12    14    15   ar
    13    15    18    1
    14    18    19    1
    15    18    20    1
    16    18    21    1
    17    15    16   ar
    18    16    17   ar
    19     2    22    1
    20    22    31    1
    21    31    32    1
    22    32    33   ar
    23    33    34   ar
    24    34    35   ar
    25    35    36    1
    26    35    37   ar
    27    37    38   ar
    28    22    23    1
    29    23    24   ar
    30    24    25   ar
    31    25    26   ar
    32    26    27   ar
    33    27    29    1
    34    29    30    3
    35    27    28   ar
    36    17    12   ar
    37    38    32   ar
    38    28    23   ar
    39     3     4    1
    40    10    11    1
@<TRIPOS>MOLECULE
*****
 38 40 0 0 0
SMALL
GASTEIGER

@<TRIPOS>ATOM
      1 C          66.7573   90.8594   14.9300 C.3     1  UNL1        0.0174
      2 C          65.3336   91.1230   14.5383 C.3     1  UNL1        0.0587
      3 N          64.2129   90.5576   15.3594 N.3     1  UNL1       -0.2935
      4 H          63.3621   91.0384   15.0672 H       1  UNL1        0.1236
      5 C          63.9170   89.0878   15.3136 C.3     1  UNL1        0.1119
      6 C          64.6879   88.9726   14.0321 C.3     1  UNL1        0.0251
      7 C          63.1461   89.2030   16.5952 C.3     1  UNL1        0.0251
      8 C          63.6212   87.6179   15.2677 C.2     1  UNL1        0.2397
      9 O          63.0034   86.9399   16.4546 O.2     1  UNL1       -0.2734
     10 N          63.9431   86.8262   14.0351 N.am    1  UNL1       -0.2683
     11 H          64.3486   87.2713   13.2562 H       1  UNL1        0.1563
     12 C          63.6473   85.3563   13.9892 C.ar    1  UNL1        0.1342
     13 C          62.8756   84.7822   12.8382 C.ar    1  UNL1        0.0344
     14 C          62.5798   83.3124   12.7924 C.ar    1  UNL1        0.0083
     15 C          63.0557   82.4167   13.8976 C.ar    1  UNL1        0.0906
     16 C          63.8273   82.9909   15.0486 C.ar    1  UNL1        0.1041
     17 N          64.1231   84.4607   15.0944 N.ar    1  UNL1       -0.2291
     18 C          62.7598   80.9469   13.8517 C.3     1  UNL1        0.4200
     19 F          62.4640   79.4771   13.8058 F       1  UNL1       -0.1658
     20 F          61.3141   81.2290   14.1350 F       1  UNL1       -0.1658
     21 F          64.2055   80.6648   13.5684 F       1  UNL1       -0.1658
     22 C          65.0306   91.9521   13.3256 C.3     1  UNL1        0.0411
     23 C          64.0148   91.4791   12.3284 C.ar    1  UNL1       -0.0202
     24 C          64.2569   91.6742   10.8610 C.ar    1  UNL1       -0.0042
     25 C          63.2410   91.2012    9.8639 C.ar    1  UNL1        0.0004
     26 C          61.9830   90.5333   10.3341 C.ar    1  UNL1        0.0103
     27 C          61.7408   90.3382   11.8016 C.ar    1  UNL1        0.0681
     28 C          62.7567   90.8111   12.7987 C.ar    1  UNL1        0.0061
     29 C          60.4828   89.6702   12.2718 C.1     1  UNL1        0.1004
     30 N          59.2247   89.0022   12.7420 N.1     1  UNL1       -0.1908
     31 C          65.7435   93.2542   13.1099 C.3     1  UNL1        0.0320
     32 C          66.2996   93.5898   11.7579 C.ar    1  UNL1       -0.0218
     33 C          65.9398   94.8891   11.1004 C.ar    1  UNL1       -0.0034
     34 C          66.4958   95.2248    9.7483 C.ar    1  UNL1        0.0111
     35 C          67.4118   94.2611    9.0537 C.ar    1  UNL1        0.0577
     36 CL         67.9679   94.5968    7.7017 Cl      1  UNL1       -0.0822
     37 C          67.7716   92.9618    9.7112 C.ar    1  UNL1        0.0111
     38 C          67.2156   92.6261   11.0633 C.ar    1  UNL1       -0.0034
@<TRIPOS>BOND
     1     2     1    1
     2     2     3    1
     3     3     5    1
     4     5     6    1
     5     5     7    1
     6     5     8    1
     7     8     9    2
     8     8    10   am
     9    10    12    1
    10    12    13   ar
    11    13    14   ar
    12    14    15   ar
    13    15    18    1
    14    18    19    1
    15    18    20    1
    16    18    21    1
    17    15    16   ar
    18    16    17   ar
    19     2    22    1
    20    22    31    1
    21    31    32    1
    22    32    33   ar
    23    33    34   ar
    24    34    35   ar
    25    35    36    1
    26    35    37   ar
    27    37    38   ar
    28    22    23    1
    29    23    24   ar
    30    24    25   ar
    31    25    26   ar
    32    26    27   ar
    33    27    29    1
    34    29    30    3
    35    27    28   ar
    36    17    12   ar
    37    38    32   ar
    38    28    23   ar
    39     3     4    1
    40    10    11    1
