@<TRIPOS>MOLECULE
*****
 24 28 0 0 0
SMALL
GASTEIGER

@<TRIPOS>ATOM
      1 C          61.8731   88.6095   10.4439 C.ar    1  UNL1        0.1390
      2 C          62.0317   87.1751   10.8525 C.ar    1  UNL1        0.0429
      3 C          62.8167   86.8280   12.0827 C.ar    1  UNL1        0.0739
      4 C          63.4431   87.9155   12.9043 C.ar    1  UNL1        0.0840
      5 C          63.2845   89.3500   12.4957 C.ar    1  UNL1        0.0413
      6 C          64.0104   90.1999   13.4960 C.ar    1  UNL1        0.1217
      7 N          64.6177   89.2906   14.5228 N.ar    1  UNL1       -0.1676
      8 N          64.2671   87.8788   14.1571 N.ar    1  UNL1       -0.2490
      9 C          64.6805   86.6594   14.9266 C.3     1  UNL1        0.1489
     10 C          64.3755   85.2204   14.6333 C.3     1  UNL1        0.1200
     11 N          63.5817   84.6453   13.4979 N.am    1  UNL1       -0.2742
     12 C          62.8969   85.3671   12.3755 C.2     1  UNL1        0.2506
     13 O          62.1770   84.4990   11.3866 O.2     1  UNL1       -0.2699
     14 C          62.4995   89.6971   11.2655 C.ar    1  UNL1        0.0400
     15 C          63.0551   82.0678   13.0023 C.3     1  UNL1        0.0917
     16 C          62.1010   81.6621   13.8767 C.3     1  UNL1        0.0921
     17 N          61.5239   81.3702   14.3863 N.3     1  UNL1       -0.2713
     18 C          62.0778   80.4057   13.3798 C.3     1  UNL1        0.0722
     19 C          63.1329   80.8543   12.4128 C.3     1  UNL1        0.0191
     20 C          63.6342   82.2675   12.4521 C.3     1  UNL1        0.0224
     21 C          63.0803   83.2320   13.4586 C.3     1  UNL1        0.0191
     22 C          62.0252   82.7834   14.4256 C.3     1  UNL1        0.0722
     23 C          60.0987   87.9777    8.6544 C.3     1  UNL1        0.2525
     24 O          61.0881   88.9566    9.2137 O.3     1  UNL1       -0.4714
@<TRIPOS>BOND
     1    23    24    1
     2    24     1    1
     3     1     2   ar
     4     2     3   ar
     5     3     4   ar
     6     4     5   ar
     7     5     6   ar
     8     6     7   ar
     9     7     8   ar
    10     8     9    1
    11     9    10    1
    12    10    11    1
    13    15    11    1
    14    15    16    1
    15    16    17    1
    16    17    18    1
    17    18    19    1
    18    19    20    1
    19    20    21    1
    20    21    22    1
    21    11    12   am
    22    12    13    2
    23     5    14   ar
    24    14     1   ar
    25    12     3    1
    26     8     4   ar
    27    20    15    1
    28    22    17    1
@<TRIPOS>MOLECULE
*****
 24 28 0 0 0
SMALL
GASTEIGER

@<TRIPOS>ATOM
      1 C          61.3717   89.0611    9.8715 C.ar    1  UNL1        0.1390
      2 C          61.5778   87.6511   10.3396 C.ar    1  UNL1        0.0429
      3 C          62.4232   87.3780   11.5482 C.ar    1  UNL1        0.0739
      4 C          63.0624   88.5151   12.2887 C.ar    1  UNL1        0.0840
      5 C          62.8563   89.9252   11.8206 C.ar    1  UNL1        0.0413
      6 C          63.6078   90.8355   12.7462 C.ar    1  UNL1        0.1217
      7 N          64.2784   89.9879   13.7864 N.ar    1  UNL1       -0.1676
      8 N          63.9413   88.5538   13.5036 N.ar    1  UNL1       -0.2490
      9 C          64.4134   87.3807   14.3103 C.3     1  UNL1        0.1489
     10 C          64.1258   85.9238   14.0990 C.3     1  UNL1        0.1200
     11 N          63.2948   85.2803   13.0287 N.am    1  UNL1       -0.2742
     12 C          62.5465   85.9346   11.9055 C.2     1  UNL1        0.2506
     13 O          61.8019   85.0068   10.9919 O.2     1  UNL1       -0.2699
     14 C          62.0109   90.1983   10.6120 C.ar    1  UNL1        0.0400
     15 C          62.8005   82.6727   12.6791 C.3     1  UNL1        0.0917
     16 C          63.5237   82.2512   11.6118 C.3     1  UNL1        0.0921
     17 N          63.9434   81.9493   10.9711 N.3     1  UNL1       -0.2713
     18 C          63.0680   80.9830   11.7127 C.3     1  UNL1        0.0722
     19 C          62.2683   81.4491   12.8930 C.3     1  UNL1        0.0191
     20 C          62.3439   82.8815   13.3316 C.3     1  UNL1        0.0224
     21 C          63.2193   83.8478   12.5899 C.3     1  UNL1        0.0191
     22 C          64.0190   83.3817   11.4097 C.3     1  UNL1        0.0722
     23 C          59.6939   88.2379    8.0665 C.3     1  UNL1        0.2525
     24 O          60.5263   89.3341    8.6628 O.3     1  UNL1       -0.4714
@<TRIPOS>BOND
     1    23    24    1
     2    24     1    1
     3     1     2   ar
     4     2     3   ar
     5     3     4   ar
     6     4     5   ar
     7     5     6   ar
     8     6     7   ar
     9     7     8   ar
    10     8     9    1
    11     9    10    1
    12    10    11    1
    13    15    11    1
    14    15    16    1
    15    16    17    1
    16    17    18    1
    17    18    19    1
    18    19    20    1
    19    20    21    1
    20    21    22    1
    21    11    12   am
    22    12    13    2
    23     5    14   ar
    24    14     1   ar
    25    12     3    1
    26     8     4   ar
    27    20    15    1
    28    22    17    1
@<TRIPOS>MOLECULE
*****
 24 28 0 0 0
SMALL
GASTEIGER

@<TRIPOS>ATOM
      1 C          64.3745   90.1532   13.8238 C.ar    1  UNL1        0.1390
      2 C          64.1513   88.6704   13.8565 C.ar    1  UNL1        0.0429
      3 C          63.3685   88.0055   12.7633 C.ar    1  UNL1        0.0739
      4 C          62.8090   88.8235   11.6374 C.ar    1  UNL1        0.0840
      5 C          63.0323   90.3064   11.6046 C.ar    1  UNL1        0.0413
      6 C          62.3642   90.8487   10.3759 C.ar    1  UNL1        0.1217
      7 N          61.7281   89.7010    9.6494 N.ar    1  UNL1       -0.1676
      8 N          62.0030   88.4493   10.4289 N.ar    1  UNL1       -0.2490
      9 C          61.5412   87.0745   10.0458 C.3     1  UNL1        0.1489
     10 C          61.7702   85.7773   10.7631 C.3     1  UNL1        0.1200
     11 N          62.5176   85.5344   12.0408 N.am    1  UNL1       -0.2742
     12 C          63.2205   86.5287   12.9166 C.2     1  UNL1        0.2506
     13 O          63.8818   85.9657   14.1397 O.2     1  UNL1       -0.2699
     14 C          63.8150   90.9713   12.6978 C.ar    1  UNL1        0.0400
     15 C          62.9086   83.2028   13.2965 C.3     1  UNL1        0.0917
     16 C          63.8895   82.5352   12.6394 C.3     1  UNL1        0.0921
     17 N          64.4798   82.0926   12.2739 N.3     1  UNL1       -0.2713
     18 C          63.8337   81.4791   13.4806 C.3     1  UNL1        0.0722
     19 C          62.7490   82.2174   14.2074 C.3     1  UNL1        0.0191
     20 C          62.3103   83.5691   13.7275 C.3     1  UNL1        0.0224
     21 C          62.9564   84.1826   12.5207 C.3     1  UNL1        0.0191
     22 C          64.0411   83.4443   11.7939 C.3     1  UNL1        0.0722
     23 C          66.4111   91.5736   14.5890 C.3     1  UNL1        0.2525
     24 O          65.1574   90.8182   14.9171 O.3     1  UNL1       -0.4714
@<TRIPOS>BOND
     1    23    24    1
     2    24     1    1
     3     1     2   ar
     4     2     3   ar
     5     3     4   ar
     6     4     5   ar
     7     5     6   ar
     8     6     7   ar
     9     7     8   ar
    10     8     9    1
    11     9    10    1
    12    10    11    1
    13    15    11    1
    14    15    16    1
    15    16    17    1
    16    17    18    1
    17    18    19    1
    18    19    20    1
    19    20    21    1
    20    21    22    1
    21    11    12   am
    22    12    13    2
    23     5    14   ar
    24    14     1   ar
    25    12     3    1
    26     8     4   ar
    27    20    15    1
    28    22    17    1
@<TRIPOS>MOLECULE
*****
 24 28 0 0 0
SMALL
GASTEIGER

@<TRIPOS>ATOM
      1 C          65.8576   94.1641   10.8336 C.ar    1  UNL1        0.1390
      2 C          64.9588   92.9759   10.6603 C.ar    1  UNL1        0.0429
      3 C          64.7386   92.0291   11.8027 C.ar    1  UNL1        0.0739
      4 C          65.4172   92.2706   13.1184 C.ar    1  UNL1        0.0840
      5 C          66.3161   93.4589   13.2917 C.ar    1  UNL1        0.0413
      6 C          66.8456   93.4389   14.6950 C.ar    1  UNL1        0.1217
      7 N          66.2739   92.2382   15.3890 N.ar    1  UNL1       -0.1676
      8 N          65.3912   91.5162   14.4146 N.ar    1  UNL1       -0.2490
      9 C          64.6261   90.2601   14.7093 C.3     1  UNL1        0.1489
     10 C          63.7262   89.4779   13.7993 C.3     1  UNL1        0.1200
     11 N          63.3690   89.7586   12.3697 N.am    1  UNL1       -0.2742
     12 C          63.8236   90.8908   11.4972 C.2     1  UNL1        0.2506
     13 O          63.2826   90.8921   10.0982 O.2     1  UNL1       -0.2699
     14 C          66.5363   94.4057   12.1493 C.ar    1  UNL1        0.0400
     15 C          61.7571   88.3402   10.7710 C.3     1  UNL1        0.0917
     16 C          60.4996   88.8301   10.9070 C.3     1  UNL1        0.0921
     17 N          59.7209   89.0929   10.9561 N.3     1  UNL1       -0.2713
     18 C          59.9828   87.9475   10.0238 C.3     1  UNL1        0.0722
     19 C          61.3734   87.4057    9.8734 C.3     1  UNL1        0.0191
     20 C          62.5021   88.0095   10.6553 C.3     1  UNL1        0.0224
     21 C          62.2402   89.1549   11.5877 C.3     1  UNL1        0.0191
     22 C          60.8496   89.6966   11.7381 C.3     1  UNL1        0.0722
     23 C          67.4245   95.1952    9.0358 C.3     1  UNL1        0.2525
     24 O          66.0778   95.1109    9.6911 O.3     1  UNL1       -0.4714
@<TRIPOS>BOND
     1    23    24    1
     2    24     1    1
     3     1     2   ar
     4     2     3   ar
     5     3     4   ar
     6     4     5   ar
     7     5     6   ar
     8     6     7   ar
     9     7     8   ar
    10     8     9    1
    11     9    10    1
    12    10    11    1
    13    15    11    1
    14    15    16    1
    15    16    17    1
    16    17    18    1
    17    18    19    1
    18    19    20    1
    19    20    21    1
    20    21    22    1
    21    11    12   am
    22    12    13    2
    23     5    14   ar
    24    14     1   ar
    25    12     3    1
    26     8     4   ar
    27    20    15    1
    28    22    17    1
@<TRIPOS>MOLECULE
*****
 24 28 0 0 0
SMALL
GASTEIGER

@<TRIPOS>ATOM
      1 C          63.9874   85.2093   14.5628 C.ar    1  UNL1        0.1390
      2 C          63.3563   85.2017   13.2022 C.ar    1  UNL1        0.0429
      3 C          63.1329   86.4927   12.4718 C.ar    1  UNL1        0.0739
      4 C          63.5407   87.7913   13.1021 C.ar    1  UNL1        0.0840
      5 C          64.1718   87.7989   14.4629 C.ar    1  UNL1        0.0413
      6 C          64.4681   89.2232   14.8285 C.ar    1  UNL1        0.1217
      7 N          64.0200   90.0958   13.6936 N.ar    1  UNL1       -0.1676
      8 N          63.4468   89.2109   12.6267 N.ar    1  UNL1       -0.2490
      9 C          62.8840   89.6868   11.3203 C.3     1  UNL1        0.1489
     10 C          62.2949   88.8756   10.2047 C.3     1  UNL1        0.1200
     11 N          62.1230   87.3878   10.1199 N.am    1  UNL1       -0.2742
     12 C          62.4979   86.3441   11.1297 C.2     1  UNL1        0.2506
     13 O          62.1932   84.9267   10.7446 O.2     1  UNL1       -0.2699
     14 C          64.3952   86.5080   15.1933 C.ar    1  UNL1        0.0400
     15 C          61.0660   85.9689    8.1112 C.3     1  UNL1        0.0917
     16 C          62.0687   85.2720    7.5208 C.3     1  UNL1        0.0921
     17 N          62.6433   84.8300    7.1304 N.3     1  UNL1       -0.2713
     18 C          61.2400   84.7072    6.6150 C.3     1  UNL1        0.0722
     19 C          60.1311   85.4779    7.2679 C.3     1  UNL1        0.0191
     20 C          60.4254   86.3714    8.4362 C.3     1  UNL1        0.0224
     21 C          61.8288   86.4942    8.9516 C.3     1  UNL1        0.0191
     22 C          62.9377   85.7236    8.2987 C.3     1  UNL1        0.0722
     23 C          63.6078   82.6476   14.7720 C.3     1  UNL1        0.2525
     24 O          64.2108   83.9183   15.2932 O.3     1  UNL1       -0.4714
@<TRIPOS>BOND
     1    23    24    1
     2    24     1    1
     3     1     2   ar
     4     2     3   ar
     5     3     4   ar
     6     4     5   ar
     7     5     6   ar
     8     6     7   ar
     9     7     8   ar
    10     8     9    1
    11     9    10    1
    12    10    11    1
    13    15    11    1
    14    15    16    1
    15    16    17    1
    16    17    18    1
    17    18    19    1
    18    19    20    1
    19    20    21    1
    20    21    22    1
    21    11    12   am
    22    12    13    2
    23     5    14   ar
    24    14     1   ar
    25    12     3    1
    26     8     4   ar
    27    20    15    1
    28    22    17    1
@<TRIPOS>MOLECULE
*****
 24 28 0 0 0
SMALL
GASTEIGER

@<TRIPOS>ATOM
      1 C          64.2359   86.7686   14.6973 C.ar    1  UNL1        0.1390
      2 C          63.5203   86.5872   13.3916 C.ar    1  UNL1        0.0429
      3 C          63.2064   87.7789   12.5365 C.ar    1  UNL1        0.0739
      4 C          63.6082   89.1521   12.9871 C.ar    1  UNL1        0.0840
      5 C          64.3238   89.3335   14.2928 C.ar    1  UNL1        0.0413
      6 C          64.5932   90.7979   14.4743 C.ar    1  UNL1        0.1217
      7 N          64.0441   91.5215   13.2806 N.ar    1  UNL1       -0.1676
      8 N          63.4353   90.5044   12.3615 N.ar    1  UNL1       -0.2490
      9 C          62.7744   90.8113   11.0504 C.3     1  UNL1        0.1489
     10 C          62.1440   89.8613   10.0758 C.3     1  UNL1        0.1200
     11 N          62.0188   88.3696   10.1716 N.am    1  UNL1       -0.2742
     12 C          62.4929   87.4596   11.2655 C.2     1  UNL1        0.2506
     13 O          62.2136   85.9996   11.0645 O.2     1  UNL1       -0.2699
     14 C          64.6377   88.1418   15.1480 C.ar    1  UNL1        0.0400
     15 C          60.8859   86.7006    8.4117 C.3     1  UNL1        0.0917
     16 C          59.5711   87.0209    8.3208 C.3     1  UNL1        0.0921
     17 N          58.7678   87.1781    8.2320 N.3     1  UNL1       -0.2713
     18 C          59.3235   86.0510    7.4130 C.3     1  UNL1        0.0722
     19 C          60.7776   85.6968    7.5134 C.3     1  UNL1        0.0191
     20 C          61.6759   86.4696    8.4330 C.3     1  UNL1        0.0224
     21 C          61.1202   87.5967    9.2520 C.3     1  UNL1        0.0191
     22 C          59.6662   87.9510    9.1515 C.3     1  UNL1        0.0722
     23 C          64.1476   84.2037   15.1021 C.3     1  UNL1        0.2525
     24 O          64.5498   85.5768   15.5524 O.3     1  UNL1       -0.4714
@<TRIPOS>BOND
     1    23    24    1
     2    24     1    1
     3     1     2   ar
     4     2     3   ar
     5     3     4   ar
     6     4     5   ar
     7     5     6   ar
     8     6     7   ar
     9     7     8   ar
    10     8     9    1
    11     9    10    1
    12    10    11    1
    13    15    11    1
    14    15    16    1
    15    16    17    1
    16    17    18    1
    17    18    19    1
    18    19    20    1
    19    20    21    1
    20    21    22    1
    21    11    12   am
    22    12    13    2
    23     5    14   ar
    24    14     1   ar
    25    12     3    1
    26     8     4   ar
    27    20    15    1
    28    22    17    1
@<TRIPOS>MOLECULE
*****
 24 28 0 0 0
SMALL
GASTEIGER

@<TRIPOS>ATOM
      1 C          63.5909   82.8231   13.9825 C.ar    1  UNL1        0.1390
      2 C          62.9580   83.4169   12.7591 C.ar    1  UNL1        0.0429
      3 C          62.9877   84.9011   12.5445 C.ar    1  UNL1        0.0739
      4 C          63.6503   85.7916   13.5535 C.ar    1  UNL1        0.0840
      5 C          64.2832   85.1979   14.7770 C.ar    1  UNL1        0.0413
      6 C          64.8589   86.3183   15.5913 C.ar    1  UNL1        0.1217
      7 N          64.5818   87.6046   14.8711 N.ar    1  UNL1       -0.1676
      8 N          63.8348   87.2791   13.6116 N.ar    1  UNL1       -0.2490
      9 C          63.3651   88.2841   12.6021 C.3     1  UNL1        0.1489
     10 C          62.6167   88.0465   11.3241 C.3     1  UNL1        0.1200
     11 N          62.1530   86.7449   10.7401 N.am    1  UNL1       -0.2742
     12 C          62.3233   85.3597   11.2897 C.2     1  UNL1        0.2506
     13 O          61.7406   84.2542   10.4602 O.2     1  UNL1       -0.2699
     14 C          64.2535   83.7136   14.9915 C.ar    1  UNL1        0.0400
     15 C          60.8172   86.3545    8.4533 C.3     1  UNL1        0.0917
     16 C          59.5992   86.9380    8.5777 C.3     1  UNL1        0.0921
     17 N          58.8493   87.2768    8.6064 N.3     1  UNL1       -0.2713
     18 C          59.2181   86.5748    7.3331 C.3     1  UNL1        0.0722
     19 C          60.5652   85.9296    7.1955 C.3     1  UNL1        0.0191
     20 C          61.5434   85.9863    8.3311 C.3     1  UNL1        0.0224
     21 C          61.1746   86.6882    9.6044 C.3     1  UNL1        0.0191
     22 C          59.8275   87.3335    9.7420 C.3     1  UNL1        0.0722
     23 C          62.5629   80.4945   13.4616 C.3     1  UNL1        0.2525
     24 O          63.5612   81.3387   14.1970 O.3     1  UNL1       -0.4714
@<TRIPOS>BOND
     1    23    24    1
     2    24     1    1
     3     1     2   ar
     4     2     3   ar
     5     3     4   ar
     6     4     5   ar
     7     5     6   ar
     8     6     7   ar
     9     7     8   ar
    10     8     9    1
    11     9    10    1
    12    10    11    1
    13    15    11    1
    14    15    16    1
    15    16    17    1
    16    17    18    1
    17    18    19    1
    18    19    20    1
    19    20    21    1
    20    21    22    1
    21    11    12   am
    22    12    13    2
    23     5    14   ar
    24    14     1   ar
    25    12     3    1
    26     8     4   ar
    27    20    15    1
    28    22    17    1
