@<TRIPOS>MOLECULE
*****
 71 79 0 0 0
SMALL
GASTEIGER

@<TRIPOS>ATOM
      1 C          58.5121   96.1773   -1.0729 C.3     1  UNL1        0.1217
      2 N          63.7537   96.3613   -4.9769 N.3     1  UNL1       -0.1862
      3 C          63.0095   96.2153   -6.2711 C.3     1  UNL1        0.1775
      4 C          61.5147   96.0909   -6.2668 C.2     1  UNL1        0.2452
      5 O          60.7705   95.9449   -7.5610 O.2     1  UNL1       -0.2732
      6 N          60.7640   96.1125   -4.9683 N.am    1  UNL1       -0.2541
      7 C          59.2692   95.9881   -4.9640 C.3     1  UNL1        0.1577
      8 C          58.5185   96.0097   -3.6656 C.2     1  UNL1        0.2445
      9 O          57.0237   95.8853   -3.6613 O.2     1  UNL1       -0.2731
     10 N          59.2627   96.1557   -2.3713 N.am    1  UNL1       -0.2705
     11 C          60.7575   96.2801   -2.3756 C.3     1  UNL1        0.1359
     12 C          61.5082   96.2585   -3.6742 C.3     1  UNL1        0.1908
     13 N          63.0030   96.3829   -3.6785 N.am    1  UNL1       -0.1863
     14 C          63.7472   96.5289   -2.3842 C.2     1  UNL1        0.3191
     15 O          62.9965   96.5505   -1.0858 O.2     1  UNL1       -0.2512
     16 N          65.2420   96.6533   -2.3885 N.am    1  UNL1       -0.2836
     17 H          65.7347   96.6391   -3.2408 H       1  UNL1        0.1513
     18 C          65.2485   96.4857   -4.9812 C.3     1  UNL1        0.1188
     19 C          66.8466   96.1818   -7.0070 C.2     1  UNL1       -0.0034
     20 C          66.0726   95.5957   -5.8636 C.2     1  UNL1       -0.0071
     21 C          58.5250   95.8421   -6.2581 C.3     1  UNL1        0.0556
     22 C          57.6071   94.6745   -6.4679 C.ar    1  UNL1       -0.0198
     23 C          58.0889   93.2819   -6.1879 C.ar    1  UNL1       -0.0011
     24 C          57.1709   92.1143   -6.3976 C.ar    1  UNL1        0.0363
     25 C          55.7711   92.3392   -6.8873 C.ar    1  UNL1        0.1337
     26 O          54.8531   91.1716   -7.0970 O.3     1  UNL1       -0.5055
     27 C          55.2892   93.7319   -7.1673 C.ar    1  UNL1        0.0363
     28 C          56.2072   94.8995   -6.9575 C.ar    1  UNL1       -0.0011
     29 H          55.1542   90.3017   -6.9221 H       1  UNL1        0.2922
     30 C          65.9862   96.7993   -1.0944 C.3     1  UNL1        0.1177
     31 C          65.5035   96.0849    0.1330 C.ar    1  UNL1       -0.0025
     32 C          65.2972   94.5995    0.1038 C.ar    1  UNL1       -0.0026
     33 C          64.8145   93.8850    1.3313 C.ar    1  UNL1       -0.0003
     34 C          64.5382   94.6560    2.5879 C.ar    1  UNL1       -0.0000
     35 C          64.7446   96.1415    2.6172 C.ar    1  UNL1       -0.0003
     36 C          65.2273   96.8559    1.3897 C.ar    1  UNL1       -0.0026
     37 C          59.2139   95.8252    0.2052 C.ar    1  UNL1        0.0135
     38 C          60.0412   96.8556    0.9150 C.ar    1  UNL1       -0.0012
     39 C          60.7430   96.5035    2.1931 C.ar    1  UNL1       -0.0002
     40 C          60.6177   95.1210    2.7612 C.ar    1  UNL1        0.0016
     41 C          59.7904   94.0905    2.0514 C.ar    1  UNL1        0.0214
     42 C          59.4842   92.6568    2.3685 C.ar    1  UNL1        0.0722
     43 C          58.5931   92.1228    1.2865 C.ar    1  UNL1        0.0805
     44 N          58.3486   93.2265    0.3007 N.ar    1  UNL1       -0.3241
     45 C          57.5111   93.1309   -0.9401 C.3     1  UNL1        0.1305
     46 C          59.0886   94.4426    0.7734 C.ar    1  UNL1        0.0577
     47 C          59.9818   91.8914    3.5588 C.2     1  UNL1        0.2510
     48 O          61.4560   91.7541    3.7994 O.2     1  UNL1       -0.2698
     49 N          59.0052   91.2633    4.5084 N.am    1  UNL1       -0.2791
     50 H          58.0376   91.3534    4.3504 H       1  UNL1        0.1552
     51 C          59.5027   90.4979    5.6986 C.ar    1  UNL1        0.0701
     52 C          60.8227   90.8497    6.3181 C.ar    1  UNL1        0.0191
     53 C          61.3203   90.0843    7.5083 C.ar    1  UNL1        0.0356
     54 C          60.4978   88.9672    8.0790 C.ar    1  UNL1        0.1319
     55 N          59.1778   88.6155    7.4595 N.ar    1  UNL1       -0.2279
     56 C          58.6802   89.3808    6.2692 C.ar    1  UNL1        0.1149
     57 N          60.9953   88.2019    9.2692 N.pl3   1  UNL1       -0.2904
     58 C          60.5331   86.7940    9.5023 C.3     1  UNL1        0.1095
     59 C          61.0305   86.0285   10.6925 C.3     1  UNL1        0.0941
     60 N          61.9902   86.6709   11.6497 N.3     1  UNL1       -0.2660
     61 C          62.4525   88.0788   11.4168 C.3     1  UNL1        0.0941
     62 C          61.9550   88.8443   10.2265 C.3     1  UNL1        0.1095
     63 C          62.4877   85.9055   12.8399 C.3     1  UNL1        0.0992
     64 C          62.5188   84.4062   12.8079 C.ar    1  UNL1       -0.0059
     65 C          62.4407   83.6269   14.0872 C.ar    1  UNL1        0.0002
     66 C          62.4718   82.1275   14.0550 C.ar    1  UNL1        0.0366
     67 C          62.5808   81.4075   12.7437 C.ar    1  UNL1        0.1387
     68 C          62.6589   82.1868   11.4644 C.ar    1  UNL1        0.0366
     69 C          62.6278   83.6861   11.4965 C.ar    1  UNL1        0.0002
     70 O          62.6119   79.9081   12.7116 O.3     1  UNL1       -0.4714
     71 C          62.8711   79.1908   11.4201 C.3     1  UNL1        0.2525
@<TRIPOS>BOND
     1    19    20    2
     2    20    18    1
     3    18     2    1
     4     2     3    1
     5     3     4    1
     6     4     5    2
     7     4     6   am
     8     6     7    1
     9     7    21    1
    10    21    22    1
    11    22    23   ar
    12    23    24   ar
    13    24    25   ar
    14    25    26    1
    15    25    27   ar
    16    27    28   ar
    17     7     8    1
    18     8     9    2
    19     8    10   am
    20    10     1    1
    21     1    37    1
    22    37    38   ar
    23    38    39   ar
    24    39    40   ar
    25    40    41   ar
    26    41    42   ar
    27    42    47    1
    28    47    48    2
    29    47    49   am
    30    49    51    1
    31    51    52   ar
    32    52    53   ar
    33    53    54   ar
    34    54    57    1
    35    57    58    1
    36    58    59    1
    37    59    60    1
    38    60    63    1
    39    63    64    1
    40    64    65   ar
    41    65    66   ar
    42    66    67   ar
    43    67    70    1
    44    70    71    1
    45    67    68   ar
    46    68    69   ar
    47    60    61    1
    48    61    62    1
    49    54    55   ar
    50    55    56   ar
    51    42    43   ar
    52    43    44   ar
    53    44    45    1
    54    44    46   ar
    55    10    11    1
    56    11    12    1
    57    12    13    1
    58    13    14   am
    59    14    15    2
    60    14    16   am
    61    16    30    1
    62    30    31    1
    63    31    32   ar
    64    32    33   ar
    65    33    34   ar
    66    34    35   ar
    67    35    36   ar
    68    13     2    1
    69    36    31   ar
    70    12     6    1
    71    28    22   ar
    72    46    37   ar
    73    46    41   ar
    74    56    51   ar
    75    62    57    1
    76    69    64   ar
    77    26    29    1
    78    49    50    1
    79    16    17    1
