@<TRIPOS>MOLECULE
*****
 29 31 0 0 0
SMALL
GASTEIGER

@<TRIPOS>ATOM
      1 C          63.6182   89.9946   13.1912 C.ar    1  UNL1        0.0316
      2 C          64.6295   91.1005   13.2561 C.ar    1  UNL1        0.0399
      3 C          64.8382   91.9964   12.0713 C.ar    1  UNL1        0.1454
      4 C          64.0356   91.7865   10.8216 C.ar    1  UNL1        0.0388
      5 C          63.0243   90.6806   10.7567 C.ar    1  UNL1        0.0190
      6 C          62.8156   89.7846   11.9415 C.ar    1  UNL1        0.0660
      7 O          62.7212   89.6234   15.6011 O.co2   1  UNL1       -0.5445
      8 C          63.4095   89.0987   14.3760 C.2     1  UNL1        0.0742
      9 O          63.8890   87.6780   14.3357 O.co2   1  UNL1       -0.5445
     10 N          61.8042   88.6787   11.8766 N.pl3   1  UNL1       -0.2149
     11 H          61.1730   88.5446   12.6201 H       1  UNL1        0.1737
     12 S          61.7546   87.7771   10.6788 S.O2    1  UNL1        0.0758
     13 O          61.1684   88.8918    9.8641 O.2     1  UNL1       -0.1499
     14 O          62.3407   86.6625   11.4935 O.2     1  UNL1       -0.1499
     15 C          61.7049   86.8755    9.4810 C.ar    1  UNL1        0.1525
     16 C          62.9429   86.1586    9.0301 C.ar    1  UNL1        0.0230
     17 C          62.8933   85.2571    7.8323 C.ar    1  UNL1        0.0082
     18 C          61.6056   85.0724    7.0855 C.ar    1  UNL1        0.0369
     19 BR         61.5560   84.1707    5.8877 Br      1  UNL1       -0.0489
     20 C          60.3676   85.7893    7.5364 C.ar    1  UNL1        0.0377
     21 C          60.4173   86.6908    8.7342 C.ar    1  UNL1        0.1594
     22 F          59.1792   87.4078    9.1851 F       1  UNL1       -0.2027
     23 O          65.8495   93.1023   12.1362 O.3     1  UNL1       -0.4535
     24 C          66.6448   93.4639   10.9168 C.ar    1  UNL1        0.1453
     25 C          67.5193   92.4373   10.2601 C.ar    1  UNL1        0.0375
     26 C          68.3146   92.7989    9.0408 C.ar    1  UNL1        0.0031
     27 C          68.2352   94.1871    8.4781 C.ar    1  UNL1        0.0002
     28 C          67.3607   95.2137    9.1348 C.ar    1  UNL1        0.0031
     29 C          66.5655   94.8521   10.3541 C.ar    1  UNL1        0.0375
@<TRIPOS>UNITY_ATOM_ATTR
7 1
charge -1
@<TRIPOS>BOND
     1     7     8   ar
     2     8     9   ar
     3     8     1    1
     4     1     2   ar
     5     2     3   ar
     6     3    23    1
     7    23    24    1
     8    24    25   ar
     9    25    26   ar
    10    26    27   ar
    11    27    28   ar
    12    28    29   ar
    13     3     4   ar
    14     4     5   ar
    15     5     6   ar
    16     6    10    1
    17    10    12    1
    18    12    13    2
    19    12    14    2
    20    12    15    1
    21    15    16   ar
    22    16    17   ar
    23    17    18   ar
    24    18    19    1
    25    18    20   ar
    26    20    21   ar
    27    21    22    1
    28     6     1   ar
    29    21    15   ar
    30    29    24   ar
    31    10    11    1
@<TRIPOS>MOLECULE
*****
 29 31 0 0 0
SMALL
GASTEIGER

@<TRIPOS>ATOM
      1 C          64.3129   91.3398   14.0115 C.ar    1  UNL1        0.0316
      2 C          65.4488   92.2922   13.7822 C.ar    1  UNL1        0.0399
      3 C          65.7488   92.7820   12.3965 C.ar    1  UNL1        0.1454
      4 C          64.9130   92.3193   11.2401 C.ar    1  UNL1        0.0388
      5 C          63.7770   91.3670   11.4694 C.ar    1  UNL1        0.0190
      6 C          63.4770   90.8772   12.8551 C.ar    1  UNL1        0.0660
      7 O          63.9005   89.3784   15.6646 O.co2   1  UNL1       -0.5445
      8 C          64.0129   90.8501   15.3972 C.2     1  UNL1        0.0742
      9 O          63.8252   91.8320   16.5154 O.co2   1  UNL1       -0.5445
     10 N          62.3410   89.9248   13.0844 N.pl3   1  UNL1       -0.2149
     11 H          61.9629   89.8178   13.9871 H       1  UNL1        0.1737
     12 S          61.7812   89.1354   11.9384 S.O2    1  UNL1        0.0758
     13 O          63.1602   88.6551   11.5956 O.2     1  UNL1       -0.1499
     14 O          60.4022   89.6157   12.2812 O.2     1  UNL1       -0.1499
     15 C          61.2213   88.3460   10.7923 C.ar    1  UNL1        0.1525
     16 C          61.4732   86.8699   10.7043 C.ar    1  UNL1        0.0230
     17 C          60.9134   86.0806    9.5583 C.ar    1  UNL1        0.0082
     18 C          60.1015   86.7673    8.5003 C.ar    1  UNL1        0.0369
     19 BR         59.5417   85.9778    7.3542 Br      1  UNL1       -0.0489
     20 C          59.8496   88.2433    8.5883 C.ar    1  UNL1        0.0377
     21 C          60.4095   89.0326    9.7343 C.ar    1  UNL1        0.1594
     22 F          60.1576   90.5088    9.8223 F       1  UNL1       -0.2027
     23 O          66.8848   93.7344   12.1672 O.3     1  UNL1       -0.4535
     24 C          66.8861   94.6231   10.9588 C.ar    1  UNL1        0.1453
     25 C          67.5509   94.1677    9.6936 C.ar    1  UNL1        0.0375
     26 C          67.5522   95.0565    8.4852 C.ar    1  UNL1        0.0031
     27 C          66.8887   96.4006    8.5421 C.ar    1  UNL1        0.0002
     28 C          66.2241   96.8560    9.8073 C.ar    1  UNL1        0.0031
     29 C          66.2228   95.9672   11.0157 C.ar    1  UNL1        0.0375
@<TRIPOS>UNITY_ATOM_ATTR
7 1
charge -1
@<TRIPOS>BOND
     1     7     8   ar
     2     8     9   ar
     3     8     1    1
     4     1     2   ar
     5     2     3   ar
     6     3    23    1
     7    23    24    1
     8    24    25   ar
     9    25    26   ar
    10    26    27   ar
    11    27    28   ar
    12    28    29   ar
    13     3     4   ar
    14     4     5   ar
    15     5     6   ar
    16     6    10    1
    17    10    12    1
    18    12    13    2
    19    12    14    2
    20    12    15    1
    21    15    16   ar
    22    16    17   ar
    23    17    18   ar
    24    18    19    1
    25    18    20   ar
    26    20    21   ar
    27    21    22    1
    28     6     1   ar
    29    21    15   ar
    30    29    24   ar
    31    10    11    1
@<TRIPOS>MOLECULE
*****
 29 31 0 0 0
SMALL
GASTEIGER

@<TRIPOS>ATOM
      1 C          63.6663   89.6449   13.2175 C.ar    1  UNL1        0.0316
      2 C          64.6808   90.7438   13.3314 C.ar    1  UNL1        0.0399
      3 C          64.8174   91.7555   12.2324 C.ar    1  UNL1        0.1454
      4 C          63.9394   91.6683   11.0194 C.ar    1  UNL1        0.0388
      5 C          62.9248   90.5693   10.9054 C.ar    1  UNL1        0.0190
      6 C          62.7883   89.5577   12.0044 C.ar    1  UNL1        0.0660
      7 O          63.0582   89.0605   15.6748 O.co2   1  UNL1       -0.5445
      8 C          63.5297   88.6332   14.3165 C.2     1  UNL1        0.0742
      9 O          63.8646   87.1943   14.0572 O.co2   1  UNL1       -0.5445
     10 N          61.7737   88.4587   11.8904 N.pl3   1  UNL1       -0.2149
     11 H          61.1295   88.3059   12.6191 H       1  UNL1        0.1737
     12 S          61.7404   87.5927   10.6661 S.O2    1  UNL1        0.0758
     13 O          62.0583   86.3919   11.5069 O.2     1  UNL1       -0.1499
     14 O          61.4226   88.7935    9.8253 O.2     1  UNL1       -0.1499
     15 C          61.7072   86.7267    9.4418 C.ar    1  UNL1        0.1525
     16 C          62.9469   86.0088    8.9970 C.ar    1  UNL1        0.0230
     17 C          62.9136   85.1428    7.7728 C.ar    1  UNL1        0.0082
     18 C          61.6407   84.9947    6.9932 C.ar    1  UNL1        0.0369
     19 BR         61.6074   84.1287    5.7688 Br      1  UNL1       -0.0489
     20 C          60.4010   85.7126    7.4379 C.ar    1  UNL1        0.0377
     21 C          60.4343   86.5786    8.6622 C.ar    1  UNL1        0.1594
     22 F          59.1946   87.2965    9.1070 F       1  UNL1       -0.2027
     23 O          65.8320   92.8545   12.3464 O.3     1  UNL1       -0.4535
     24 C          66.8645   92.8121   13.4337 C.ar    1  UNL1        0.1453
     25 C          68.1003   91.9793   13.2624 C.ar    1  UNL1        0.0375
     26 C          69.1328   91.9369   14.3497 C.ar    1  UNL1        0.0031
     27 C          68.9294   92.7274   15.6083 C.ar    1  UNL1        0.0002
     28 C          67.6936   93.5601   15.7796 C.ar    1  UNL1        0.0031
     29 C          66.6612   93.6025   14.6923 C.ar    1  UNL1        0.0375
@<TRIPOS>UNITY_ATOM_ATTR
7 1
charge -1
@<TRIPOS>BOND
     1     7     8   ar
     2     8     9   ar
     3     8     1    1
     4     1     2   ar
     5     2     3   ar
     6     3    23    1
     7    23    24    1
     8    24    25   ar
     9    25    26   ar
    10    26    27   ar
    11    27    28   ar
    12    28    29   ar
    13     3     4   ar
    14     4     5   ar
    15     5     6   ar
    16     6    10    1
    17    10    12    1
    18    12    13    2
    19    12    14    2
    20    12    15    1
    21    15    16   ar
    22    16    17   ar
    23    17    18   ar
    24    18    19    1
    25    18    20   ar
    26    20    21   ar
    27    21    22    1
    28     6     1   ar
    29    21    15   ar
    30    29    24   ar
    31    10    11    1
@<TRIPOS>MOLECULE
*****
 29 31 0 0 0
SMALL
GASTEIGER

@<TRIPOS>ATOM
      1 C          61.1860   88.9051   10.7998 C.ar    1  UNL1        0.0316
      2 C          60.9570   87.4398   10.5754 C.ar    1  UNL1        0.0399
      3 C          61.8658   86.4322   11.2147 C.ar    1  UNL1        0.1454
      4 C          63.0035   86.8898   12.0785 C.ar    1  UNL1        0.0388
      5 C          63.2325   88.3551   12.3029 C.ar    1  UNL1        0.0190
      6 C          62.3237   89.3627   11.6636 C.ar    1  UNL1        0.0660
      7 O          59.9485   89.8067    8.7008 O.co2   1  UNL1       -0.5445
      8 C          60.2773   89.9128   10.1605 C.2     1  UNL1        0.0742
      9 O          59.6974   91.0267   10.9807 O.co2   1  UNL1       -0.5445
     10 N          62.5528   90.8281   11.8880 N.pl3   1  UNL1       -0.2149
     11 H          61.8912   91.4841   11.5699 H       1  UNL1        0.1737
     12 S          63.7898   91.2939   12.5971 S.O2    1  UNL1        0.0758
     13 O          63.0986   91.1202   13.9170 O.2     1  UNL1       -0.1499
     14 O          64.4809   91.4676   11.2773 O.2     1  UNL1       -0.1499
     15 C          65.0268   91.7597   13.3063 C.ar    1  UNL1        0.1525
     16 C          65.6071   93.1075   12.9952 C.ar    1  UNL1        0.0230
     17 C          66.8441   93.5732   13.7043 C.ar    1  UNL1        0.0082
     18 C          67.5008   92.6912   14.7244 C.ar    1  UNL1        0.0369
     19 BR         68.7379   93.1570   15.4335 Br      1  UNL1       -0.0489
     20 C          66.9206   91.3434   15.0355 C.ar    1  UNL1        0.0377
     21 C          65.6836   90.8777   14.3264 C.ar    1  UNL1        0.1594
     22 F          65.1033   89.5298   14.6374 F       1  UNL1       -0.2027
     23 O          61.6367   84.9668   10.9903 O.3     1  UNL1       -0.4535
     24 C          62.6328   83.9659   11.4961 C.ar    1  UNL1        0.1453
     25 C          63.6606   83.3941   10.5650 C.ar    1  UNL1        0.0375
     26 C          64.6567   82.3932   11.0709 C.ar    1  UNL1        0.0031
     27 C          64.6251   81.9640   12.5079 C.ar    1  UNL1        0.0002
     28 C          63.5973   82.5358   13.4389 C.ar    1  UNL1        0.0031
     29 C          62.6012   83.5367   12.9330 C.ar    1  UNL1        0.0375
@<TRIPOS>UNITY_ATOM_ATTR
7 1
charge -1
@<TRIPOS>BOND
     1     7     8   ar
     2     8     9   ar
     3     8     1    1
     4     1     2   ar
     5     2     3   ar
     6     3    23    1
     7    23    24    1
     8    24    25   ar
     9    25    26   ar
    10    26    27   ar
    11    27    28   ar
    12    28    29   ar
    13     3     4   ar
    14     4     5   ar
    15     5     6   ar
    16     6    10    1
    17    10    12    1
    18    12    13    2
    19    12    14    2
    20    12    15    1
    21    15    16   ar
    22    16    17   ar
    23    17    18   ar
    24    18    19    1
    25    18    20   ar
    26    20    21   ar
    27    21    22    1
    28     6     1   ar
    29    21    15   ar
    30    29    24   ar
    31    10    11    1
@<TRIPOS>MOLECULE
*****
 29 31 0 0 0
SMALL
GASTEIGER

@<TRIPOS>ATOM
      1 C          63.5342   90.1865   13.3452 C.ar    1  UNL1        0.0316
      2 C          64.5807   91.2611   13.3387 C.ar    1  UNL1        0.0399
      3 C          64.8571   92.0311   12.0814 C.ar    1  UNL1        0.1454
      4 C          64.0871   91.7265   10.8307 C.ar    1  UNL1        0.0388
      5 C          63.0407   90.6519   10.8373 C.ar    1  UNL1        0.0190
      6 C          62.7642   89.8820   12.0945 C.ar    1  UNL1        0.0660
      7 O          64.2138   88.3538   15.0567 O.co2   1  UNL1       -0.5445
      8 C          63.2577   89.4165   14.6025 C.2     1  UNL1        0.0742
      9 O          62.0251   89.7093   15.4055 O.co2   1  UNL1       -0.5445
     10 N          61.7176   88.8073   12.1011 N.pl3   1  UNL1       -0.2149
     11 H          60.7825   89.0322   12.3114 H       1  UNL1        0.1737
     12 S          62.0958   87.3902   11.7871 S.O2    1  UNL1        0.0758
     13 O          60.6995   87.1235   11.3086 O.2     1  UNL1       -0.1499
     14 O          63.4922   87.6569   12.2655 O.2     1  UNL1       -0.1499
     15 C          62.4741   85.9730   11.4731 C.ar    1  UNL1        0.1525
     16 C          62.5785   84.9625   12.5767 C.ar    1  UNL1        0.0230
     17 C          62.9568   83.5454   12.2627 C.ar    1  UNL1        0.0082
     18 C          63.2307   83.1387   10.8451 C.ar    1  UNL1        0.0369
     19 BR         63.6090   81.7215   10.5312 Br      1  UNL1       -0.0489
     20 C          63.1263   84.1492    9.7415 C.ar    1  UNL1        0.0377
     21 C          62.7480   85.5663   10.0555 C.ar    1  UNL1        0.1594
     22 F          62.6436   86.5769    8.9519 F       1  UNL1       -0.2027
     23 O          65.9037   93.1058   12.0749 O.3     1  UNL1       -0.4535
     24 C          66.6656   93.4031   10.8175 C.ar    1  UNL1        0.1453
     25 C          66.4841   94.7210   10.1245 C.ar    1  UNL1        0.0375
     26 C          67.2459   95.0183    8.8670 C.ar    1  UNL1        0.0031
     27 C          68.1893   93.9977    8.3026 C.ar    1  UNL1        0.0002
     28 C          68.3707   92.6798    8.9956 C.ar    1  UNL1        0.0031
     29 C          67.6089   92.3825   10.2530 C.ar    1  UNL1        0.0375
@<TRIPOS>UNITY_ATOM_ATTR
7 1
charge -1
@<TRIPOS>BOND
     1     7     8   ar
     2     8     9   ar
     3     8     1    1
     4     1     2   ar
     5     2     3   ar
     6     3    23    1
     7    23    24    1
     8    24    25   ar
     9    25    26   ar
    10    26    27   ar
    11    27    28   ar
    12    28    29   ar
    13     3     4   ar
    14     4     5   ar
    15     5     6   ar
    16     6    10    1
    17    10    12    1
    18    12    13    2
    19    12    14    2
    20    12    15    1
    21    15    16   ar
    22    16    17   ar
    23    17    18   ar
    24    18    19    1
    25    18    20   ar
    26    20    21   ar
    27    21    22    1
    28     6     1   ar
    29    21    15   ar
    30    29    24   ar
    31    10    11    1
@<TRIPOS>MOLECULE
*****
 29 31 0 0 0
SMALL
GASTEIGER

@<TRIPOS>ATOM
      1 C          63.0159   89.9007   11.9694 C.ar    1  UNL1        0.0316
      2 C          63.5369   90.9729   12.8798 C.ar    1  UNL1        0.0399
      3 C          64.1479   90.6048   14.1994 C.ar    1  UNL1        0.1454
      4 C          64.2378   89.1645   14.6085 C.ar    1  UNL1        0.0388
      5 C          63.7167   88.0924   13.6981 C.ar    1  UNL1        0.0190
      6 C          63.1058   88.4605   12.3786 C.ar    1  UNL1        0.0660
      7 O          62.9813   91.3955    9.8447 O.co2   1  UNL1       -0.5445
      8 C          62.4049   90.2689   10.6499 C.2     1  UNL1        0.0742
      9 O          61.2175   89.5103   10.1355 O.co2   1  UNL1       -0.5445
     10 N          62.5847   87.3882   11.4682 N.pl3   1  UNL1       -0.2149
     11 H          62.2316   87.6251   10.5802 H       1  UNL1        0.1737
     12 S          62.6016   85.9551   11.9106 S.O2    1  UNL1        0.0758
     13 O          63.8300   86.2222   12.7289 O.2     1  UNL1       -0.1499
     14 O          61.3732   85.6879   11.0923 O.2     1  UNL1       -0.1499
     15 C          62.6185   84.5219   12.3531 C.ar    1  UNL1        0.1525
     16 C          62.2782   84.1707   13.7711 C.ar    1  UNL1        0.0230
     17 C          62.2951   82.7375   14.2135 C.ar    1  UNL1        0.0082
     18 C          62.6523   81.6556   13.2379 C.ar    1  UNL1        0.0369
     19 BR         62.6692   80.2224   13.6804 Br      1  UNL1       -0.0489
     20 C          62.9926   82.0068   11.8199 C.ar    1  UNL1        0.0377
     21 C          62.9757   83.4399   11.3775 C.ar    1  UNL1        0.1594
     22 F          63.3160   83.7912    9.9594 F       1  UNL1       -0.2027
     23 O          64.6690   91.6771   15.1098 O.3     1  UNL1       -0.4535
     24 C          66.1245   92.0387   15.0865 C.ar    1  UNL1        0.1453
     25 C          66.7337   92.7725   16.2444 C.ar    1  UNL1        0.0375
     26 C          68.1892   93.1341   16.2211 C.ar    1  UNL1        0.0031
     27 C          69.0357   92.7619   15.0399 C.ar    1  UNL1        0.0002
     28 C          68.4265   92.0282   13.8821 C.ar    1  UNL1        0.0031
     29 C          66.9710   91.6666   13.9054 C.ar    1  UNL1        0.0375
@<TRIPOS>UNITY_ATOM_ATTR
7 1
charge -1
@<TRIPOS>BOND
     1     7     8   ar
     2     8     9   ar
     3     8     1    1
     4     1     2   ar
     5     2     3   ar
     6     3    23    1
     7    23    24    1
     8    24    25   ar
     9    25    26   ar
    10    26    27   ar
    11    27    28   ar
    12    28    29   ar
    13     3     4   ar
    14     4     5   ar
    15     5     6   ar
    16     6    10    1
    17    10    12    1
    18    12    13    2
    19    12    14    2
    20    12    15    1
    21    15    16   ar
    22    16    17   ar
    23    17    18   ar
    24    18    19    1
    25    18    20   ar
    26    20    21   ar
    27    21    22    1
    28     6     1   ar
    29    21    15   ar
    30    29    24   ar
    31    10    11    1
@<TRIPOS>MOLECULE
*****
 29 31 0 0 0
SMALL
GASTEIGER

@<TRIPOS>ATOM
      1 C          62.7418   87.0971   12.3585 C.ar    1  UNL1        0.0316
      2 C          63.2499   85.7035   12.5807 C.ar    1  UNL1        0.0399
      3 C          64.1861   85.4188   13.7176 C.ar    1  UNL1        0.1454
      4 C          64.6141   86.5278   14.6323 C.ar    1  UNL1        0.0388
      5 C          64.1060   87.9215   14.4102 C.ar    1  UNL1        0.0190
      6 C          63.1698   88.2061   13.2733 C.ar    1  UNL1        0.0660
      7 O          62.1861   86.9976    9.8225 O.co2   1  UNL1       -0.5445
      8 C          61.8056   87.3818   11.2217 C.2     1  UNL1        0.0742
      9 O          60.4888   88.0506   11.4839 O.co2   1  UNL1       -0.5445
     10 N          62.6616   89.5999   13.0512 N.pl3   1  UNL1       -0.2149
     11 H          61.7246   89.8209   13.2572 H       1  UNL1        0.1737
     12 S          63.5810   90.6570   12.5153 S.O2    1  UNL1        0.0758
     13 O          63.6509   91.2857   13.8754 O.2     1  UNL1       -0.1499
     14 O          63.5111   90.0282   11.1553 O.2     1  UNL1       -0.1499
     15 C          64.5005   91.7140   11.9794 C.ar    1  UNL1        0.1525
     16 C          65.6470   92.2039   12.8133 C.ar    1  UNL1        0.0230
     17 C          66.5664   93.2609   12.2774 C.ar    1  UNL1        0.0082
     18 C          66.3394   93.8281   10.9074 C.ar    1  UNL1        0.0369
     19 BR         67.2589   94.8852   10.3715 Br      1  UNL1       -0.0489
     20 C          65.1929   93.3382   10.0734 C.ar    1  UNL1        0.0377
     21 C          64.2734   92.2812   10.6094 C.ar    1  UNL1        0.1594
     22 F          63.1269   91.7913    9.7754 F       1  UNL1       -0.2027
     23 O          64.6943   84.0251   13.9397 O.3     1  UNL1       -0.4535
     24 C          63.7860   82.8517   13.7203 C.ar    1  UNL1        0.1453
     25 C          62.6149   82.6292   14.6310 C.ar    1  UNL1        0.0375
     26 C          61.7066   81.4559   14.4117 C.ar    1  UNL1        0.0031
     27 C          61.9692   80.5050   13.2816 C.ar    1  UNL1        0.0002
     28 C          63.1401   80.7276   12.3709 C.ar    1  UNL1        0.0031
     29 C          64.0485   81.9009   12.5903 C.ar    1  UNL1        0.0375
@<TRIPOS>UNITY_ATOM_ATTR
7 1
charge -1
@<TRIPOS>BOND
     1     7     8   ar
     2     8     9   ar
     3     8     1    1
     4     1     2   ar
     5     2     3   ar
     6     3    23    1
     7    23    24    1
     8    24    25   ar
     9    25    26   ar
    10    26    27   ar
    11    27    28   ar
    12    28    29   ar
    13     3     4   ar
    14     4     5   ar
    15     5     6   ar
    16     6    10    1
    17    10    12    1
    18    12    13    2
    19    12    14    2
    20    12    15    1
    21    15    16   ar
    22    16    17   ar
    23    17    18   ar
    24    18    19    1
    25    18    20   ar
    26    20    21   ar
    27    21    22    1
    28     6     1   ar
    29    21    15   ar
    30    29    24   ar
    31    10    11    1
@<TRIPOS>MOLECULE
*****
 29 31 0 0 0
SMALL
GASTEIGER

@<TRIPOS>ATOM
      1 C          63.0830   86.8892   12.5841 C.ar    1  UNL1        0.0316
      2 C          63.3984   85.4250   12.5032 C.ar    1  UNL1        0.0399
      3 C          64.2864   84.7910   13.5326 C.ar    1  UNL1        0.1454
      4 C          64.8589   85.6213   14.6429 C.ar    1  UNL1        0.0388
      5 C          64.5435   87.0855   14.7239 C.ar    1  UNL1        0.0190
      6 C          63.6555   87.7194   13.6945 C.ar    1  UNL1        0.0660
      7 O          60.8425   86.9405   11.2698 O.co2   1  UNL1       -0.5445
      8 C          62.1950   87.5231   11.5548 C.2     1  UNL1        0.0742
      9 O          62.6595   88.7396   10.8104 O.co2   1  UNL1       -0.5445
     10 N          63.3400   89.1837   13.7755 N.pl3   1  UNL1       -0.2149
     11 H          62.4360   89.5054   13.5551 H       1  UNL1        0.1737
     12 S          64.4019   90.1577   14.1922 S.O2    1  UNL1        0.0758
     13 O          64.5518   90.6036   12.7679 O.2     1  UNL1       -0.1499
     14 O          64.2520   89.7118   15.6164 O.2     1  UNL1       -0.1499
     15 C          65.4638   91.1318   14.6089 C.ar    1  UNL1        0.1525
     16 C          66.7163   91.2695   13.7951 C.ar    1  UNL1        0.0230
     17 C          67.7781   92.2435   14.2119 C.ar    1  UNL1        0.0082
     18 C          67.5875   93.0798   15.4424 C.ar    1  UNL1        0.0369
     19 BR         68.6494   94.0539   15.8592 Br      1  UNL1       -0.0489
     20 C          66.3350   92.9421   16.2562 C.ar    1  UNL1        0.0377
     21 C          65.2732   91.9681   15.8395 C.ar    1  UNL1        0.1594
     22 F          64.0206   91.8303   16.6533 F       1  UNL1       -0.2027
     23 O          64.6019   83.3268   13.4516 O.3     1  UNL1       -0.4535
     24 C          63.4944   82.3167   13.5092 C.ar    1  UNL1        0.1453
     25 C          63.5670   81.0754   12.6701 C.ar    1  UNL1        0.0375
     26 C          62.4596   80.0653   12.7277 C.ar    1  UNL1        0.0031
     27 C          61.2795   80.2966   13.6245 C.ar    1  UNL1        0.0002
     28 C          61.2070   81.5378   14.4635 C.ar    1  UNL1        0.0031
     29 C          62.3144   82.5478   14.4059 C.ar    1  UNL1        0.0375
@<TRIPOS>UNITY_ATOM_ATTR
7 1
charge -1
@<TRIPOS>BOND
     1     7     8   ar
     2     8     9   ar
     3     8     1    1
     4     1     2   ar
     5     2     3   ar
     6     3    23    1
     7    23    24    1
     8    24    25   ar
     9    25    26   ar
    10    26    27   ar
    11    27    28   ar
    12    28    29   ar
    13     3     4   ar
    14     4     5   ar
    15     5     6   ar
    16     6    10    1
    17    10    12    1
    18    12    13    2
    19    12    14    2
    20    12    15    1
    21    15    16   ar
    22    16    17   ar
    23    17    18   ar
    24    18    19    1
    25    18    20   ar
    26    20    21   ar
    27    21    22    1
    28     6     1   ar
    29    21    15   ar
    30    29    24   ar
    31    10    11    1
@<TRIPOS>MOLECULE
*****
 29 31 0 0 0
SMALL
GASTEIGER

@<TRIPOS>ATOM
      1 C          61.5383   87.1185   10.2747 C.ar    1  UNL1        0.0316
      2 C          61.7680   85.6589   10.0162 C.ar    1  UNL1        0.0399
      3 C          62.5953   84.8493   10.9702 C.ar    1  UNL1        0.1454
      4 C          63.1929   85.4993   12.1828 C.ar    1  UNL1        0.0388
      5 C          62.9632   86.9589   12.4413 C.ar    1  UNL1        0.0190
      6 C          62.1359   87.7685   11.4872 C.ar    1  UNL1        0.0660
      7 O          59.5868   87.2810    8.5673 O.co2   1  UNL1       -0.5445
      8 C          60.7110   87.9280    9.3206 C.2     1  UNL1        0.0742
      9 O          61.0079   89.3845    9.1199 O.co2   1  UNL1       -0.5445
     10 N          61.9062   89.2281   11.7458 N.pl3   1  UNL1       -0.2149
     11 H          61.0427   89.6394   11.5126 H       1  UNL1        0.1737
     12 S          62.9921   90.0610   12.3597 S.O2    1  UNL1        0.0758
     13 O          62.3572   89.8947   13.7084 O.2     1  UNL1       -0.1499
     14 O          63.6271   90.2273   11.0109 O.2     1  UNL1       -0.1499
     15 C          64.0782   90.8940   12.9736 C.ar    1  UNL1        0.1525
     16 C          64.5491   90.6032   14.3677 C.ar    1  UNL1        0.0230
     17 C          65.6351   91.4361   14.9815 C.ar    1  UNL1        0.0082
     18 C          66.2502   92.5598   14.2012 C.ar    1  UNL1        0.0369
     19 BR         67.3362   93.3928   14.8151 Br      1  UNL1       -0.0489
     20 C          65.7793   92.8506   12.8070 C.ar    1  UNL1        0.0377
     21 C          64.6933   92.0177   12.1932 C.ar    1  UNL1        0.1594
     22 F          64.2224   92.3084   10.7990 F       1  UNL1       -0.2027
     23 O          62.8250   83.3897   10.7116 O.3     1  UNL1       -0.4535
     24 C          62.9661   82.4374   11.8619 C.ar    1  UNL1        0.1453
     25 C          61.7575   81.7362   12.4077 C.ar    1  UNL1        0.0375
     26 C          61.8987   80.7839   13.5580 C.ar    1  UNL1        0.0031
     27 C          63.2484   80.5328   14.1626 C.ar    1  UNL1        0.0002
     28 C          64.4568   81.2340   13.6168 C.ar    1  UNL1        0.0031
     29 C          64.3157   82.1863   12.4665 C.ar    1  UNL1        0.0375
@<TRIPOS>UNITY_ATOM_ATTR
7 1
charge -1
@<TRIPOS>BOND
     1     7     8   ar
     2     8     9   ar
     3     8     1    1
     4     1     2   ar
     5     2     3   ar
     6     3    23    1
     7    23    24    1
     8    24    25   ar
     9    25    26   ar
    10    26    27   ar
    11    27    28   ar
    12    28    29   ar
    13     3     4   ar
    14     4     5   ar
    15     5     6   ar
    16     6    10    1
    17    10    12    1
    18    12    13    2
    19    12    14    2
    20    12    15    1
    21    15    16   ar
    22    16    17   ar
    23    17    18   ar
    24    18    19    1
    25    18    20   ar
    26    20    21   ar
    27    21    22    1
    28     6     1   ar
    29    21    15   ar
    30    29    24   ar
    31    10    11    1
