@<TRIPOS>MOLECULE
*****
 27 30 0 0 0
SMALL
GASTEIGER

@<TRIPOS>ATOM
      1 C          64.7857   90.6983   13.4040 C.ar    1  UNL1        0.0044
      2 C          64.0387   90.9210   12.1225 C.ar    1  UNL1        0.0002
      3 C          64.5224   91.9473   11.1411 C.ar    1  UNL1        0.0022
      4 C          65.7530   92.7507   11.4413 C.ar    1  UNL1        0.0275
      5 C          66.5000   92.5279   12.7229 C.ar    1  UNL1        0.1401
      6 F          67.7306   93.3313   13.0231 F       1  UNL1       -0.2042
      7 C          66.0163   91.5017   13.7042 C.ar    1  UNL1        0.0297
      8 C          63.3350   87.6196   16.3481 C.ar    1  UNL1       -0.0157
      9 C          63.9476   87.1854   15.0496 C.ar    1  UNL1       -0.0038
     10 C          64.4311   88.2116   14.0682 C.ar    1  UNL1        0.0019
     11 C          64.3021   89.6720   14.3854 C.ar    1  UNL1        0.0275
     12 C          63.6896   90.1062   15.6840 C.ar    1  UNL1        0.1398
     13 F          63.5605   91.5666   16.0012 F       1  UNL1       -0.2042
     14 C          63.2060   89.0800   16.6653 C.ar    1  UNL1        0.0257
     15 C          62.8514   86.5934   17.3295 C.3     1  UNL1        0.0509
     16 C          62.4146   85.9791   18.6263 C.3     1  UNL1        0.0100
     17 C          62.8182   87.4230   18.5788 C.3     1  UNL1        0.0100
     18 O          61.3971   85.1028   15.7759 O.co2   1  UNL1       -0.5489
     19 C          62.7166   85.4075   16.4209 C.2     1  UNL1        0.0534
     20 O          63.9015   84.5262   16.1574 O.co2   1  UNL1       -0.5489
     21 C          66.2366   93.7768   10.4600 C.ar    1  UNL1        0.0023
     22 C          67.3191   93.4278    9.4822 C.ar    1  UNL1        0.0024
     23 C          67.8028   94.4540    8.5008 C.ar    1  UNL1        0.0296
     24 C          67.2039   95.8292    8.4973 C.ar    1  UNL1        0.1401
     25 F          67.6875   96.8554    7.5160 F       1  UNL1       -0.2042
     26 C          66.1213   96.1783    9.4752 C.ar    1  UNL1        0.0296
     27 C          65.6377   95.1521   10.4565 C.ar    1  UNL1        0.0024
@<TRIPOS>UNITY_ATOM_ATTR
18 1
charge -1
@<TRIPOS>BOND
     1    18    19   ar
     2    19    20   ar
     3    19    15    1
     4    15     8    1
     5     8     9   ar
     6     9    10   ar
     7    10    11   ar
     8    11     1    1
     9     1     2   ar
    10     2     3   ar
    11     3     4   ar
    12     4    21    1
    13    21    22   ar
    14    22    23   ar
    15    23    24   ar
    16    24    25    1
    17    24    26   ar
    18    26    27   ar
    19     4     5   ar
    20     5     6    1
    21     5     7   ar
    22    11    12   ar
    23    12    13    1
    24    12    14   ar
    25    15    16    1
    26    16    17    1
    27    17    15    1
    28    14     8   ar
    29     7     1   ar
    30    27    21   ar
@<TRIPOS>MOLECULE
*****
 27 30 0 0 0
SMALL
GASTEIGER

@<TRIPOS>ATOM
      1 C          45.3310   74.4779   17.3178 C.ar    1  UNL1        0.0044
      2 C          45.4699   74.7219   15.8443 C.ar    1  UNL1        0.0002
      3 C          45.4191   73.5696   14.8852 C.ar    1  UNL1        0.0022
      4 C          45.2294   72.1734   15.3997 C.ar    1  UNL1        0.0275
      5 C          45.0905   71.9295   16.8732 C.ar    1  UNL1        0.1401
      6 F          44.9008   70.5333   17.3877 F       1  UNL1       -0.2042
      7 C          45.1413   73.0817   17.8322 C.ar    1  UNL1        0.0297
      8 C          45.4833   77.9346   20.1949 C.ar    1  UNL1       -0.0157
      9 C          44.3089   77.7752   19.2756 C.ar    1  UNL1       -0.0038
     10 C          44.2581   76.6230   18.3166 C.ar    1  UNL1        0.0019
     11 C          45.3818   75.6302   18.2769 C.ar    1  UNL1        0.0275
     12 C          46.5563   75.7895   19.1962 C.ar    1  UNL1        0.1398
     13 F          47.6800   74.7967   19.1565 F       1  UNL1       -0.2042
     14 C          46.6070   76.9417   20.1552 C.ar    1  UNL1        0.0257
     15 C          45.5342   79.0868   21.1540 C.3     1  UNL1        0.0509
     16 C          45.4474   79.8564   22.4386 C.3     1  UNL1        0.0100
     17 C          45.1556   78.3851   22.4246 C.3     1  UNL1        0.0100
     18 O          47.2789   80.1664   19.5601 O.co2   1  UNL1       -0.5489
     19 C          45.9303   80.1887   20.2165 C.2     1  UNL1        0.0534
     20 O          44.9778   81.3129   19.9354 O.co2   1  UNL1       -0.5489
     21 C          45.1786   71.0212   14.4407 C.ar    1  UNL1        0.0023
     22 C          46.3701   70.1238   14.2828 C.ar    1  UNL1        0.0024
     23 C          46.3193   68.9715   13.3237 C.ar    1  UNL1        0.0296
     24 C          45.0770   68.7167   12.5226 C.ar    1  UNL1        0.1401
     25 F          45.0262   67.5644   11.5636 F       1  UNL1       -0.2042
     26 C          43.8855   69.6141   12.6805 C.ar    1  UNL1        0.0296
     27 C          43.9363   70.7664   13.6395 C.ar    1  UNL1        0.0024
@<TRIPOS>UNITY_ATOM_ATTR
18 1
charge -1
@<TRIPOS>BOND
     1    18    19   ar
     2    19    20   ar
     3    19    15    1
     4    15     8    1
     5     8     9   ar
     6     9    10   ar
     7    10    11   ar
     8    11     1    1
     9     1     2   ar
    10     2     3   ar
    11     3     4   ar
    12     4    21    1
    13    21    22   ar
    14    22    23   ar
    15    23    24   ar
    16    24    25    1
    17    24    26   ar
    18    26    27   ar
    19     4     5   ar
    20     5     6    1
    21     5     7   ar
    22    11    12   ar
    23    12    13    1
    24    12    14   ar
    25    15    16    1
    26    16    17    1
    27    17    15    1
    28    14     8   ar
    29     7     1   ar
    30    27    21   ar
@<TRIPOS>MOLECULE
*****
 27 30 0 0 0
SMALL
GASTEIGER

@<TRIPOS>ATOM
      1 C          63.5168   86.4224   13.7321 C.ar    1  UNL1        0.0044
      2 C          64.4034   86.9104   14.8391 C.ar    1  UNL1        0.0002
      3 C          64.9021   88.3251   14.8323 C.ar    1  UNL1        0.0022
      4 C          64.5140   89.2517   13.7184 C.ar    1  UNL1        0.0275
      5 C          63.6273   88.7636   12.6114 C.ar    1  UNL1        0.1401
      6 F          63.2392   89.6903   11.4975 F       1  UNL1       -0.2042
      7 C          63.1287   87.3490   12.6182 C.ar    1  UNL1        0.0297
      8 C          62.0209   82.1783   13.7524 C.ar    1  UNL1       -0.0157
      9 C          62.5099   82.7951   12.4755 C.ar    1  UNL1       -0.0038
     10 C          63.0085   84.2097   12.4687 C.ar    1  UNL1        0.0019
     11 C          63.0181   85.0076   13.7389 C.ar    1  UNL1        0.0275
     12 C          62.5291   84.3909   15.0158 C.ar    1  UNL1        0.1398
     13 F          62.5388   85.1888   16.2859 F       1  UNL1       -0.2042
     14 C          62.0305   82.9762   15.0225 C.ar    1  UNL1        0.0257
     15 C          61.5223   80.7636   13.7592 C.3     1  UNL1        0.0509
     16 C          60.5945   79.5968   13.9264 C.3     1  UNL1        0.0100
     17 C          60.1133   80.9862   14.2234 C.3     1  UNL1        0.0100
     18 O          62.7696   79.3531   11.9689 O.co2   1  UNL1       -0.5489
     19 C          62.7580   80.0497   13.2973 C.2     1  UNL1        0.0534
     20 O          63.9823   80.0325   14.1639 O.co2   1  UNL1       -0.5489
     21 C          65.0126   90.6664   13.7116 C.ar    1  UNL1        0.0023
     22 C          65.5655   91.2728   14.9672 C.ar    1  UNL1        0.0024
     23 C          66.0642   92.6875   14.9604 C.ar    1  UNL1        0.0296
     24 C          66.0098   93.4958   13.6980 C.ar    1  UNL1        0.1401
     25 F          66.5084   94.9105   13.6911 F       1  UNL1       -0.2042
     26 C          65.4569   92.8893   12.4423 C.ar    1  UNL1        0.0296
     27 C          64.9583   91.4747   12.4492 C.ar    1  UNL1        0.0024
@<TRIPOS>UNITY_ATOM_ATTR
18 1
charge -1
@<TRIPOS>BOND
     1    18    19   ar
     2    19    20   ar
     3    19    15    1
     4    15     8    1
     5     8     9   ar
     6     9    10   ar
     7    10    11   ar
     8    11     1    1
     9     1     2   ar
    10     2     3   ar
    11     3     4   ar
    12     4    21    1
    13    21    22   ar
    14    22    23   ar
    15    23    24   ar
    16    24    25    1
    17    24    26   ar
    18    26    27   ar
    19     4     5   ar
    20     5     6    1
    21     5     7   ar
    22    11    12   ar
    23    12    13    1
    24    12    14   ar
    25    15    16    1
    26    16    17    1
    27    17    15    1
    28    14     8   ar
    29     7     1   ar
    30    27    21   ar
@<TRIPOS>MOLECULE
*****
 27 30 0 0 0
SMALL
GASTEIGER

@<TRIPOS>ATOM
      1 C          63.5894   85.3877   13.1828 C.ar    1  UNL1        0.0044
      2 C          62.8937   85.1594   11.8737 C.ar    1  UNL1        0.0002
      3 C          62.7009   83.7632   11.3603 C.ar    1  UNL1        0.0022
      4 C          63.2038   82.5953   12.1561 C.ar    1  UNL1        0.0275
      5 C          63.8994   82.8237   13.4653 C.ar    1  UNL1        0.1401
      6 F          64.4023   81.6559   14.2611 F       1  UNL1       -0.2042
      7 C          64.0922   84.2198   13.9786 C.ar    1  UNL1        0.0297
      8 C          64.1678   89.5762   14.7229 C.ar    1  UNL1       -0.0157
      9 C          63.7375   89.3517   13.3036 C.ar    1  UNL1       -0.0038
     10 C          63.5447   87.9556   12.7903 C.ar    1  UNL1        0.0019
     11 C          63.7822   86.7839   13.6962 C.ar    1  UNL1        0.0275
     12 C          64.2125   87.0083   15.1155 C.ar    1  UNL1        0.1398
     13 F          64.4500   85.8366   16.0215 F       1  UNL1       -0.2042
     14 C          64.4053   88.4045   15.6289 C.ar    1  UNL1        0.0257
     15 C          64.3606   90.9724   15.2363 C.3     1  UNL1        0.0509
     16 C          64.2318   92.1817   16.1144 C.3     1  UNL1        0.0100
     17 C          63.5015   90.9191   16.4649 C.3     1  UNL1        0.0100
     18 O          64.7449   92.3502   13.0674 O.co2   1  UNL1       -0.5489
     19 C          65.2866   91.5104   14.1861 C.2     1  UNL1        0.0534
     20 O          66.7544   91.2087   14.2545 O.co2   1  UNL1       -0.5489
     21 C          63.0110   81.1992   11.6427 C.ar    1  UNL1        0.0023
     22 C          63.1957   80.9044   10.1836 C.ar    1  UNL1        0.0024
     23 C          63.0030   79.5082    9.6702 C.ar    1  UNL1        0.0296
     24 C          62.6254   78.4069   10.6159 C.ar    1  UNL1        0.1401
     25 F          62.4326   77.0107   10.1026 F       1  UNL1       -0.2042
     26 C          62.4406   78.7017   12.0751 C.ar    1  UNL1        0.0296
     27 C          62.6334   80.0978   12.5884 C.ar    1  UNL1        0.0024
@<TRIPOS>UNITY_ATOM_ATTR
18 1
charge -1
@<TRIPOS>BOND
     1    18    19   ar
     2    19    20   ar
     3    19    15    1
     4    15     8    1
     5     8     9   ar
     6     9    10   ar
     7    10    11   ar
     8    11     1    1
     9     1     2   ar
    10     2     3   ar
    11     3     4   ar
    12     4    21    1
    13    21    22   ar
    14    22    23   ar
    15    23    24   ar
    16    24    25    1
    17    24    26   ar
    18    26    27   ar
    19     4     5   ar
    20     5     6    1
    21     5     7   ar
    22    11    12   ar
    23    12    13    1
    24    12    14   ar
    25    15    16    1
    26    16    17    1
    27    17    15    1
    28    14     8   ar
    29     7     1   ar
    30    27    21   ar
@<TRIPOS>MOLECULE
*****
 27 30 0 0 0
SMALL
GASTEIGER

@<TRIPOS>ATOM
      1 C          63.6024   85.4473   13.1991 C.ar    1  UNL1        0.0044
      2 C          62.7769   85.2070   11.9700 C.ar    1  UNL1        0.0002
      3 C          62.5790   83.8099   11.4607 C.ar    1  UNL1        0.0022
      4 C          63.2067   82.6533   12.1806 C.ar    1  UNL1        0.0275
      5 C          64.0323   82.8937   13.4098 C.ar    1  UNL1        0.1401
      6 F          64.6599   81.7371   14.1297 F       1  UNL1       -0.2042
      7 C          64.2301   84.2907   13.9190 C.ar    1  UNL1        0.0297
      8 C          64.1959   89.6382   14.7270 C.ar    1  UNL1       -0.0157
      9 C          64.4983   88.4668   15.6137 C.ar    1  UNL1       -0.0038
     10 C          64.3004   87.0698   15.1044 C.ar    1  UNL1        0.0019
     11 C          63.8002   86.8443   13.7084 C.ar    1  UNL1        0.0275
     12 C          63.4978   88.0157   12.8216 C.ar    1  UNL1        0.1398
     13 F          62.9976   87.7902   11.4256 F       1  UNL1       -0.2042
     14 C          63.6957   89.4126   13.3309 C.ar    1  UNL1        0.0257
     15 C          64.3938   91.0352   15.2362 C.3     1  UNL1        0.0509
     16 C          64.2702   92.2472   16.1113 C.3     1  UNL1        0.0100
     17 C          63.5370   90.9877   16.4666 C.3     1  UNL1        0.0100
     18 O          64.7741   92.3852   13.0493 O.co2   1  UNL1       -0.5489
     19 C          65.3192   91.5677   14.1827 C.2     1  UNL1        0.0534
     20 O          66.7897   91.2828   14.2626 O.co2   1  UNL1       -0.5489
     21 C          63.0089   81.2564   11.6714 C.ar    1  UNL1        0.0023
     22 C          63.1803   80.9591   10.2112 C.ar    1  UNL1        0.0024
     23 C          62.9825   79.5621    9.7020 C.ar    1  UNL1        0.0296
     24 C          62.6133   78.4624   10.6529 C.ar    1  UNL1        0.1401
     25 F          62.4155   77.0654   10.1437 F       1  UNL1       -0.2042
     26 C          62.4419   78.7597   12.1132 C.ar    1  UNL1        0.0296
     27 C          62.6397   80.1567   12.6224 C.ar    1  UNL1        0.0024
@<TRIPOS>UNITY_ATOM_ATTR
18 1
charge -1
@<TRIPOS>BOND
     1    18    19   ar
     2    19    20   ar
     3    19    15    1
     4    15     8    1
     5     8     9   ar
     6     9    10   ar
     7    10    11   ar
     8    11     1    1
     9     1     2   ar
    10     2     3   ar
    11     3     4   ar
    12     4    21    1
    13    21    22   ar
    14    22    23   ar
    15    23    24   ar
    16    24    25    1
    17    24    26   ar
    18    26    27   ar
    19     4     5   ar
    20     5     6    1
    21     5     7   ar
    22    11    12   ar
    23    12    13    1
    24    12    14   ar
    25    15    16    1
    26    16    17    1
    27    17    15    1
    28    14     8   ar
    29     7     1   ar
    30    27    21   ar
@<TRIPOS>MOLECULE
*****
 27 30 0 0 0
SMALL
GASTEIGER

@<TRIPOS>ATOM
      1 C          63.4125   86.4322   13.6315 C.ar    1  UNL1        0.0044
      2 C          64.3248   86.9335   14.7115 C.ar    1  UNL1        0.0002
      3 C          64.8276   88.3462   14.6728 C.ar    1  UNL1        0.0022
      4 C          64.4182   89.2576   13.5540 C.ar    1  UNL1        0.0275
      5 C          63.5058   88.7563   12.4740 C.ar    1  UNL1        0.1401
      6 F          63.0964   89.6677   11.3552 F       1  UNL1       -0.2042
      7 C          63.0030   87.3437   12.5127 C.ar    1  UNL1        0.0297
      8 C          61.9039   82.1942   13.7477 C.ar    1  UNL1       -0.0157
      9 C          62.0421   82.9763   15.0202 C.ar    1  UNL1       -0.0038
     10 C          62.5450   84.3889   14.9814 C.ar    1  UNL1        0.0019
     11 C          62.9096   85.0195   13.6702 C.ar    1  UNL1        0.0275
     12 C          62.7714   84.2375   12.3977 C.ar    1  UNL1        0.1398
     13 F          63.1361   84.8681   11.0865 F       1  UNL1       -0.2042
     14 C          62.2686   82.8248   12.4365 C.ar    1  UNL1        0.0257
     15 C          61.4011   80.7815   13.7864 C.3     1  UNL1        0.0509
     16 C          60.4639   79.6232   13.9592 C.3     1  UNL1        0.0100
     17 C          59.9756   81.0233   14.1859 C.3     1  UNL1        0.0100
     18 O          62.7942   79.4845   12.0181 O.co2   1  UNL1       -0.5489
     19 C          62.6519   80.0492   13.4004 C.2     1  UNL1        0.0534
     20 O          63.7606   79.8816   14.3968 O.co2   1  UNL1       -0.5489
     21 C          64.9210   90.6702   13.5153 C.ar    1  UNL1        0.0023
     22 C          64.6884   91.5159   12.2984 C.ar    1  UNL1        0.0024
     23 C          65.1913   92.9287   12.2596 C.ar    1  UNL1        0.0296
     24 C          65.9266   93.4956   13.4377 C.ar    1  UNL1        0.1401
     25 F          66.4294   94.9083   13.3989 F       1  UNL1       -0.2042
     26 C          66.1592   92.6498   14.6545 C.ar    1  UNL1        0.0296
     27 C          65.6564   91.2372   14.6933 C.ar    1  UNL1        0.0024
@<TRIPOS>UNITY_ATOM_ATTR
18 1
charge -1
@<TRIPOS>BOND
     1    18    19   ar
     2    19    20   ar
     3    19    15    1
     4    15     8    1
     5     8     9   ar
     6     9    10   ar
     7    10    11   ar
     8    11     1    1
     9     1     2   ar
    10     2     3   ar
    11     3     4   ar
    12     4    21    1
    13    21    22   ar
    14    22    23   ar
    15    23    24   ar
    16    24    25    1
    17    24    26   ar
    18    26    27   ar
    19     4     5   ar
    20     5     6    1
    21     5     7   ar
    22    11    12   ar
    23    12    13    1
    24    12    14   ar
    25    15    16    1
    26    16    17    1
    27    17    15    1
    28    14     8   ar
    29     7     1   ar
    30    27    21   ar
@<TRIPOS>MOLECULE
*****
 27 30 0 0 0
SMALL
GASTEIGER

@<TRIPOS>ATOM
      1 C          61.3438   86.5191    9.4854 C.ar    1  UNL1        0.0044
      2 C          60.7441   86.0458    8.1946 C.ar    1  UNL1        0.0002
      3 C          60.0994   87.0284    7.2623 C.ar    1  UNL1        0.0022
      4 C          60.0546   88.4842    7.6210 C.ar    1  UNL1        0.0275
      5 C          60.6544   88.9574    8.9119 C.ar    1  UNL1        0.1401
      6 F          60.6096   90.4132    9.2705 F       1  UNL1       -0.2042
      7 C          61.2990   87.9749    9.8441 C.ar    1  UNL1        0.0297
      8 C          63.2776   83.5714   12.2822 C.ar    1  UNL1       -0.0157
      9 C          62.3203   84.5953   12.8164 C.ar    1  UNL1       -0.0038
     10 C          61.6758   85.5778   11.8842 C.ar    1  UNL1        0.0019
     11 C          61.9884   85.5365   10.4177 C.ar    1  UNL1        0.0275
     12 C          62.9457   84.5126    9.8835 C.ar    1  UNL1        0.1398
     13 F          63.2583   84.4713    8.4170 F       1  UNL1       -0.2042
     14 C          63.5902   83.5301   10.8157 C.ar    1  UNL1        0.0257
     15 C          63.9222   82.5889   13.2145 C.3     1  UNL1        0.0509
     16 C          64.4426   81.2890   13.7527 C.3     1  UNL1        0.0100
     17 C          63.7883   81.3340   12.4036 C.3     1  UNL1        0.0100
     18 O          63.5491   83.3985   15.6549 O.co2   1  UNL1       -0.5489
     19 C          64.2799   83.5025   14.3491 C.2     1  UNL1        0.0534
     20 O          65.3685   84.5202   14.1778 O.co2   1  UNL1       -0.5489
     21 C          59.4100   89.4668    6.6888 C.ar    1  UNL1        0.0023
     22 C          57.9156   89.5198    6.5712 C.ar    1  UNL1        0.0024
     23 C          57.2710   90.5024    5.6390 C.ar    1  UNL1        0.0296
     24 C          58.1208   91.4320    4.8244 C.ar    1  UNL1        0.1401
     25 F          57.4762   92.4146    3.8922 F       1  UNL1       -0.2042
     26 C          59.6153   91.3790    4.9420 C.ar    1  UNL1        0.0296
     27 C          60.2599   90.3964    5.8741 C.ar    1  UNL1        0.0024
@<TRIPOS>UNITY_ATOM_ATTR
18 1
charge -1
@<TRIPOS>BOND
     1    18    19   ar
     2    19    20   ar
     3    19    15    1
     4    15     8    1
     5     8     9   ar
     6     9    10   ar
     7    10    11   ar
     8    11     1    1
     9     1     2   ar
    10     2     3   ar
    11     3     4   ar
    12     4    21    1
    13    21    22   ar
    14    22    23   ar
    15    23    24   ar
    16    24    25    1
    17    24    26   ar
    18    26    27   ar
    19     4     5   ar
    20     5     6    1
    21     5     7   ar
    22    11    12   ar
    23    12    13    1
    24    12    14   ar
    25    15    16    1
    26    16    17    1
    27    17    15    1
    28    14     8   ar
    29     7     1   ar
    30    27    21   ar
@<TRIPOS>MOLECULE
*****
 27 30 0 0 0
SMALL
GASTEIGER

@<TRIPOS>ATOM
      1 C          63.6614   89.9924   11.7809 C.ar    1  UNL1        0.0044
      2 C          63.9612   89.5323   13.1767 C.ar    1  UNL1        0.0002
      3 C          64.9290   90.2997   14.0278 C.ar    1  UNL1        0.0022
      4 C          65.5970   91.5273   13.4831 C.ar    1  UNL1        0.0275
      5 C          65.2972   91.9875   12.0872 C.ar    1  UNL1        0.1401
      6 F          65.9652   93.2151   11.5425 F       1  UNL1       -0.2042
      7 C          64.3294   91.2201   11.2361 C.ar    1  UNL1        0.0297
      8 C          60.7580   87.6902    9.2274 C.ar    1  UNL1       -0.0157
      9 C          60.9720   89.1550    8.9852 C.ar    1  UNL1       -0.0038
     10 C          61.9398   89.9224    9.8363 C.ar    1  UNL1        0.0019
     11 C          62.6936   89.2250   10.9297 C.ar    1  UNL1        0.0275
     12 C          62.4796   87.7602   11.1719 C.ar    1  UNL1        0.1398
     13 F          63.2334   87.0629   12.2653 F       1  UNL1       -0.2042
     14 C          61.5119   86.9929   10.3207 C.ar    1  UNL1        0.0257
     15 C          59.7902   86.9228    8.3762 C.3     1  UNL1        0.0509
     16 C          58.5013   86.5115    7.7284 C.3     1  UNL1        0.0100
     17 C          58.5294   87.6819    8.6663 C.3     1  UNL1        0.0100
     18 O          62.1565   85.8639    8.2039 O.co2   1  UNL1       -0.5489
     19 C          60.7150   85.8972    7.7906 C.2     1  UNL1        0.0534
     20 O          60.1982   84.9048    6.7915 O.co2   1  UNL1       -0.5489
     21 C          66.5647   92.2948   14.3342 C.ar    1  UNL1        0.0023
     22 C          66.6532   93.7870   14.2098 C.ar    1  UNL1        0.0024
     23 C          67.6210   94.5545   15.0610 C.ar    1  UNL1        0.0296
     24 C          68.5003   93.8298   16.0364 C.ar    1  UNL1        0.1401
     25 F          69.4681   94.5972   16.8875 F       1  UNL1       -0.2042
     26 C          68.4118   92.3375   16.1608 C.ar    1  UNL1        0.0296
     27 C          67.4441   91.5701   15.3097 C.ar    1  UNL1        0.0024
@<TRIPOS>UNITY_ATOM_ATTR
18 1
charge -1
@<TRIPOS>BOND
     1    18    19   ar
     2    19    20   ar
     3    19    15    1
     4    15     8    1
     5     8     9   ar
     6     9    10   ar
     7    10    11   ar
     8    11     1    1
     9     1     2   ar
    10     2     3   ar
    11     3     4   ar
    12     4    21    1
    13    21    22   ar
    14    22    23   ar
    15    23    24   ar
    16    24    25    1
    17    24    26   ar
    18    26    27   ar
    19     4     5   ar
    20     5     6    1
    21     5     7   ar
    22    11    12   ar
    23    12    13    1
    24    12    14   ar
    25    15    16    1
    26    16    17    1
    27    17    15    1
    28    14     8   ar
    29     7     1   ar
    30    27    21   ar
@<TRIPOS>MOLECULE
*****
 27 30 0 0 0
SMALL
GASTEIGER

@<TRIPOS>ATOM
      1 C          63.4342   90.2077   11.5370 C.ar    1  UNL1        0.0044
      2 C          63.7058   89.6052   12.8835 C.ar    1  UNL1        0.0002
      3 C          64.7446   90.2107   13.7804 C.ar    1  UNL1        0.0022
      4 C          65.5118   91.4187   13.3307 C.ar    1  UNL1        0.0275
      5 C          65.2401   92.0212   11.9841 C.ar    1  UNL1        0.1401
      6 F          66.0073   93.2292   11.5344 F       1  UNL1       -0.2042
      7 C          64.2014   91.4157   11.0873 C.ar    1  UNL1        0.0297
      8 C          60.3179   88.3913    8.8464 C.ar    1  UNL1       -0.0157
      9 C          61.6539   87.7272    9.0017 C.ar    1  UNL1       -0.0038
     10 C          62.6926   88.3327    9.8985 C.ar    1  UNL1        0.0019
     11 C          62.3954   89.6022   10.6401 C.ar    1  UNL1        0.0275
     12 C          61.0594   90.2663   10.4848 C.ar    1  UNL1        0.1398
     13 F          60.7622   91.5358   11.2264 F       1  UNL1       -0.2042
     14 C          60.0207   89.6608    9.5880 C.ar    1  UNL1        0.0257
     15 C          59.2791   87.7858    7.9495 C.3     1  UNL1        0.0509
     16 C          58.3360   86.7756    7.3663 C.3     1  UNL1        0.0100
     17 C          59.1939   86.4101    8.5413 C.3     1  UNL1        0.0100
     18 O          57.5892   89.3341    6.7261 O.co2   1  UNL1       -0.5489
     19 C          59.0037   88.9513    7.0463 C.2     1  UNL1        0.0534
     20 O          60.1428   89.7339    6.4634 O.co2   1  UNL1       -0.5489
     21 C          66.5505   92.0242   14.2275 C.ar    1  UNL1        0.0023
     22 C          67.9754   92.1177   13.7683 C.ar    1  UNL1        0.0024
     23 C          69.0143   92.7232   14.6651 C.ar    1  UNL1        0.0296
     24 C          68.6282   93.2352   16.0212 C.ar    1  UNL1        0.1401
     25 F          69.6669   93.8407   16.9180 F       1  UNL1       -0.2042
     26 C          67.2032   93.1416   16.4804 C.ar    1  UNL1        0.0296
     27 C          66.1644   92.5362   15.5835 C.ar    1  UNL1        0.0024
@<TRIPOS>UNITY_ATOM_ATTR
18 1
charge -1
@<TRIPOS>BOND
     1    18    19   ar
     2    19    20   ar
     3    19    15    1
     4    15     8    1
     5     8     9   ar
     6     9    10   ar
     7    10    11   ar
     8    11     1    1
     9     1     2   ar
    10     2     3   ar
    11     3     4   ar
    12     4    21    1
    13    21    22   ar
    14    22    23   ar
    15    23    24   ar
    16    24    25    1
    17    24    26   ar
    18    26    27   ar
    19     4     5   ar
    20     5     6    1
    21     5     7   ar
    22    11    12   ar
    23    12    13    1
    24    12    14   ar
    25    15    16    1
    26    16    17    1
    27    17    15    1
    28    14     8   ar
    29     7     1   ar
    30    27    21   ar
