@<TRIPOS>MOLECULE
*****
 30 32 0 0 0
SMALL
GASTEIGER

@<TRIPOS>ATOM
      1 C          64.1395   90.2587   13.4151 C.ar    1  UNL1       -0.0138
      2 C          65.0876   91.4163   13.5189 C.ar    1  UNL1        0.0303
      3 C          65.2633   92.3485   12.3569 C.ar    1  UNL1        0.1319
      4 N          64.4908   92.1231   11.0911 N.ar    1  UNL1       -0.2290
      5 C          63.5426   90.9654   10.9873 C.ar    1  UNL1        0.1045
      6 C          63.3670   90.0332   12.1492 C.ar    1  UNL1        0.0686
      7 C          62.4188   88.8755   12.0453 C.2     1  UNL1        0.2471
      8 O          60.9551   89.0795   12.3022 O.2     1  UNL1       -0.2701
      9 N          62.9343   87.5139   11.6846 N.am    1  UNL1       -0.3008
     10 H          63.8950   87.3800   11.5160 H       1  UNL1        0.1497
     11 C          61.9861   86.3562   11.5806 C.3     1  UNL1        0.0898
     12 C          62.4545   84.9709   11.9144 C.3     1  UNL1        0.0246
     13 C          62.4377   84.4959   13.3371 C.3     1  UNL1        0.0338
     14 C          62.9061   83.1105   13.6709 C.3     1  UNL1        0.1422
     15 O          63.3913   82.2001   12.5819 O.3     1  UNL1       -0.3538
     16 C          63.4081   82.6751   11.1592 C.3     1  UNL1        0.1422
     17 C          62.9397   84.0605   10.8254 C.3     1  UNL1        0.0338
     18 C          63.1279   89.7410   15.7514 C.3     1  UNL1        0.0047
     19 C          63.9639   89.3265   14.5770 C.3     1  UNL1        0.0226
     20 C          64.6242   87.9798   14.5646 C.3     1  UNL1        0.0047
     21 N          66.2115   93.5063   12.4609 N.pl3   1  UNL1       -0.2973
     22 H          66.6392   93.7164   13.3223 H       1  UNL1        0.1536
     23 C          66.5079   94.3437   11.2522 C.ar    1  UNL1        0.0601
     24 C          65.9966   95.7516   11.1714 C.ar    1  UNL1        0.0164
     25 C          66.2930   96.5890    9.9628 C.ar    1  UNL1        0.0127
     26 C          67.1008   96.0185    8.8349 C.ar    1  UNL1        0.0586
     27 CL         67.3973   96.8559    7.6262 Cl      1  UNL1       -0.0822
     28 C          67.6122   94.6107    8.9157 C.ar    1  UNL1        0.0240
     29 C          67.3157   93.7733   10.1244 C.ar    1  UNL1        0.0719
     30 CL         67.8271   92.3654   10.2051 Cl      1  UNL1       -0.0809
@<TRIPOS>BOND
     1    18    19    1
     2    19    20    1
     3    19     1    1
     4     1     2   ar
     5     2     3   ar
     6     3    21    1
     7    21    23    1
     8    23    24   ar
     9    24    25   ar
    10    25    26   ar
    11    26    27    1
    12    26    28   ar
    13    28    29   ar
    14    29    30    1
    15     3     4   ar
    16     4     5   ar
    17     5     6   ar
    18     6     7    1
    19     7     8    2
    20     7     9   am
    21     9    11    1
    22    11    12    1
    23    12    13    1
    24    13    14    1
    25    14    15    1
    26    15    16    1
    27    16    17    1
    28     6     1   ar
    29    17    12    1
    30    29    23   ar
    31    21    22    1
    32     9    10    1
@<TRIPOS>MOLECULE
*****
 30 32 0 0 0
SMALL
GASTEIGER

@<TRIPOS>ATOM
      1 C          64.3828   89.3347   14.2492 C.ar    1  UNL1       -0.0138
      2 C          64.5637   88.0348   14.9755 C.ar    1  UNL1        0.0303
      3 C          64.0827   86.7562   14.3560 C.ar    1  UNL1        0.1319
      4 N          63.4209   86.7774   13.0101 N.ar    1  UNL1       -0.2290
      5 C          63.2400   88.0773   12.2838 C.ar    1  UNL1        0.1045
      6 C          63.7209   89.3559   12.9033 C.ar    1  UNL1        0.0686
      7 C          63.5400   90.6558   12.1769 C.2     1  UNL1        0.2471
      8 O          62.1604   91.1519   11.8596 O.2     1  UNL1       -0.2701
      9 N          64.7386   91.4594   11.7677 N.am    1  UNL1       -0.3008
     10 H          65.6440   91.1338   11.9760 H       1  UNL1        0.1497
     11 C          64.5577   92.7593   11.0413 C.3     1  UNL1        0.0898
     12 C          65.7544   93.5080   10.5343 C.3     1  UNL1        0.0246
     13 C          66.9488   92.7567   10.0254 C.3     1  UNL1        0.0338
     14 C          68.1457   93.5054    9.5183 C.3     1  UNL1        0.1422
     15 O          68.1481   95.0054    9.5201 O.3     1  UNL1       -0.3538
     16 C          66.9536   95.7567   10.0290 C.3     1  UNL1        0.1422
     17 C          65.7568   95.0080   10.5360 C.3     1  UNL1        0.0338
     18 C          66.2105   91.1634   14.5037 C.3     1  UNL1        0.0047
     19 C          64.8637   90.6133   14.8687 C.3     1  UNL1        0.0226
     20 C          63.9978   91.3418   15.8533 C.3     1  UNL1        0.0047
     21 N          64.2636   85.4563   15.0824 N.pl3   1  UNL1       -0.2973
     22 H          64.6503   85.4480   15.9878 H       1  UNL1        0.1536
     23 C          63.8554   84.1691   14.4294 C.ar    1  UNL1        0.0601
     24 C          64.7866   83.4851   13.4727 C.ar    1  UNL1        0.0164
     25 C          64.3784   82.1979   12.8197 C.ar    1  UNL1        0.0127
     26 C          63.0389   81.5947   13.1234 C.ar    1  UNL1        0.0586
     27 CL         62.6307   80.3075   12.4704 Cl      1  UNL1       -0.0822
     28 C          62.1078   82.2786   14.0800 C.ar    1  UNL1        0.0240
     29 C          62.5161   83.5658   14.7331 C.ar    1  UNL1        0.0719
     30 CL         61.5849   84.2498   15.6897 Cl      1  UNL1       -0.0809
@<TRIPOS>BOND
     1    18    19    1
     2    19    20    1
     3    19     1    1
     4     1     2   ar
     5     2     3   ar
     6     3    21    1
     7    21    23    1
     8    23    24   ar
     9    24    25   ar
    10    25    26   ar
    11    26    27    1
    12    26    28   ar
    13    28    29   ar
    14    29    30    1
    15     3     4   ar
    16     4     5   ar
    17     5     6   ar
    18     6     7    1
    19     7     8    2
    20     7     9   am
    21     9    11    1
    22    11    12    1
    23    12    13    1
    24    13    14    1
    25    14    15    1
    26    15    16    1
    27    16    17    1
    28     6     1   ar
    29    17    12    1
    30    29    23   ar
    31    21    22    1
    32     9    10    1
@<TRIPOS>MOLECULE
*****
 30 32 0 0 0
SMALL
GASTEIGER

@<TRIPOS>ATOM
      1 C          62.5449   89.2776   11.5175 C.ar    1  UNL1       -0.0138
      2 C          62.0468   87.9156   11.1344 C.ar    1  UNL1        0.0303
      3 C          62.5072   86.7074   11.8949 C.ar    1  UNL1        0.1319
      4 N          63.4657   86.8612   13.0384 N.ar    1  UNL1       -0.2290
      5 C          63.9638   88.2232   13.4214 C.ar    1  UNL1        0.1045
      6 C          63.5034   89.4314   12.6610 C.ar    1  UNL1        0.0686
      7 C          64.0016   90.7935   13.0441 C.2     1  UNL1        0.2471
      8 O          63.4433   91.4835   14.2533 O.2     1  UNL1       -0.2701
      9 N          65.0579   91.4654   12.2180 N.am    1  UNL1       -0.3008
     10 H          65.4244   91.0125   11.4243 H       1  UNL1        0.1497
     11 C          65.5561   92.8275   12.6011 C.3     1  UNL1        0.0898
     12 C          66.1968   93.7091   11.5704 C.3     1  UNL1        0.0246
     13 C          66.9261   93.0988   10.4104 C.3     1  UNL1        0.0338
     14 C          67.5668   93.9804    9.3796 C.3     1  UNL1        0.1422
     15 O          67.4782   95.4722    9.5090 O.3     1  UNL1       -0.3538
     16 C          66.7488   96.0824   10.6691 C.3     1  UNL1        0.1422
     17 C          66.1081   95.2008   11.6997 C.3     1  UNL1        0.0338
     18 C          60.6563   90.9337   10.8539 C.3     1  UNL1        0.0047
     19 C          62.0845   90.4858   10.7570 C.3     1  UNL1        0.0226
     20 C          63.0524   91.2462    9.8997 C.3     1  UNL1        0.0047
     21 N          62.0091   85.3453   11.5118 N.pl3   1  UNL1       -0.2973
     22 H          61.3031   85.2526   10.8318 H       1  UNL1        0.1536
     23 C          62.5865   84.1245   12.1647 C.ar    1  UNL1        0.0601
     24 C          62.2474   83.8052   13.5906 C.ar    1  UNL1        0.0164
     25 C          62.8248   82.5844   14.2435 C.ar    1  UNL1        0.0127
     26 C          63.7414   81.6830   13.4705 C.ar    1  UNL1        0.0586
     27 CL         64.3188   80.4622   14.1234 Cl      1  UNL1       -0.0822
     28 C          64.0804   82.0023   12.0446 C.ar    1  UNL1        0.0240
     29 C          63.5030   83.2231   11.3917 C.ar    1  UNL1        0.0719
     30 CL         63.8420   83.5424    9.9658 Cl      1  UNL1       -0.0809
@<TRIPOS>BOND
     1    18    19    1
     2    19    20    1
     3    19     1    1
     4     1     2   ar
     5     2     3   ar
     6     3    21    1
     7    21    23    1
     8    23    24   ar
     9    24    25   ar
    10    25    26   ar
    11    26    27    1
    12    26    28   ar
    13    28    29   ar
    14    29    30    1
    15     3     4   ar
    16     4     5   ar
    17     5     6   ar
    18     6     7    1
    19     7     8    2
    20     7     9   am
    21     9    11    1
    22    11    12    1
    23    12    13    1
    24    13    14    1
    25    14    15    1
    26    15    16    1
    27    16    17    1
    28     6     1   ar
    29    17    12    1
    30    29    23   ar
    31    21    22    1
    32     9    10    1
@<TRIPOS>MOLECULE
*****
 30 32 0 0 0
SMALL
GASTEIGER

@<TRIPOS>ATOM
      1 C          64.2275   91.3256   12.4050 C.ar    1  UNL1       -0.0138
      2 C          64.9911   92.5316   11.9441 C.ar    1  UNL1        0.0303
      3 C          66.1186   93.0683   12.7752 C.ar    1  UNL1        0.1319
      4 N          66.4825   92.3990   14.0673 N.ar    1  UNL1       -0.2290
      5 C          65.7189   91.1931   14.5283 C.ar    1  UNL1        0.1045
      6 C          64.5914   90.6564   13.6972 C.ar    1  UNL1        0.0686
      7 C          63.8279   89.4503   14.1582 C.2     1  UNL1        0.2471
      8 O          62.6546   89.6122   15.0787 O.2     1  UNL1       -0.2701
      9 N          64.2376   88.0825   13.6988 N.am    1  UNL1       -0.3008
     10 H          65.0076   87.9762   13.0946 H       1  UNL1        0.1497
     11 C          63.4740   86.8764   14.1598 C.3     1  UNL1        0.0898
     12 C          63.5075   85.6134   13.3514 C.3     1  UNL1        0.0246
     13 C          64.3348   84.4500   13.8119 C.3     1  UNL1        0.0338
     14 C          64.3683   83.1868   13.0035 C.3     1  UNL1        0.1422
     15 O          63.5745   83.0871   11.7347 O.3     1  UNL1       -0.3538
     16 C          62.7472   84.2506   11.2742 C.3     1  UNL1        0.1422
     17 C          62.7137   85.5137   12.0826 C.3     1  UNL1        0.0338
     18 C          61.8758   90.2340   12.2395 C.3     1  UNL1        0.0047
     19 C          63.1001   90.7889   11.5739 C.3     1  UNL1        0.0226
     20 C          63.1969   90.8071   10.0772 C.3     1  UNL1        0.0047
     21 N          66.8821   94.2744   12.3142 N.pl3   1  UNL1       -0.2973
     22 H          67.5842   94.6608   12.8861 H       1  UNL1        0.1536
     23 C          66.5760   94.8916   10.9818 C.ar    1  UNL1        0.0601
     24 C          65.6432   96.0631   10.8944 C.ar    1  UNL1        0.0164
     25 C          65.3371   96.6804    9.5620 C.ar    1  UNL1        0.0127
     26 C          65.9638   96.1261    8.3170 C.ar    1  UNL1        0.0586
     27 CL         65.6577   96.7434    6.9846 Cl      1  UNL1       -0.0822
     28 C          66.8966   94.9547    8.4043 C.ar    1  UNL1        0.0240
     29 C          67.2027   94.3374    9.7367 C.ar    1  UNL1        0.0719
     30 CL         68.1355   93.1659    9.8240 Cl      1  UNL1       -0.0809
@<TRIPOS>BOND
     1    18    19    1
     2    19    20    1
     3    19     1    1
     4     1     2   ar
     5     2     3   ar
     6     3    21    1
     7    21    23    1
     8    23    24   ar
     9    24    25   ar
    10    25    26   ar
    11    26    27    1
    12    26    28   ar
    13    28    29   ar
    14    29    30    1
    15     3     4   ar
    16     4     5   ar
    17     5     6   ar
    18     6     7    1
    19     7     8    2
    20     7     9   am
    21     9    11    1
    22    11    12    1
    23    12    13    1
    24    13    14    1
    25    14    15    1
    26    15    16    1
    27    16    17    1
    28     6     1   ar
    29    17    12    1
    30    29    23   ar
    31    21    22    1
    32     9    10    1
@<TRIPOS>MOLECULE
*****
 30 32 0 0 0
SMALL
GASTEIGER

@<TRIPOS>ATOM
      1 C          63.9444   87.3632   13.9347 C.ar    1  UNL1       -0.0138
      2 C          64.2750   88.8064   14.1750 C.ar    1  UNL1        0.0303
      3 C          63.8195   89.8524   13.2012 C.ar    1  UNL1        0.1319
      4 N          63.0333   89.4552   11.9871 N.ar    1  UNL1       -0.2290
      5 C          62.7027   88.0120   11.7468 C.ar    1  UNL1        0.1045
      6 C          63.1582   86.9660   12.7206 C.ar    1  UNL1        0.0686
      7 C          62.8275   85.5227   12.4803 C.2     1  UNL1        0.2471
      8 O          61.9693   84.7770   13.4588 O.2     1  UNL1       -0.2701
      9 N          63.3549   84.8253   11.2616 N.am    1  UNL1       -0.3008
     10 H          63.9182   85.3148   10.6194 H       1  UNL1        0.1497
     11 C          63.0242   83.3820   11.0213 C.3     1  UNL1        0.0898
     12 C          63.1822   82.3820   12.1281 C.3     1  UNL1        0.0246
     13 C          64.4552   82.3347   12.9199 C.3     1  UNL1        0.0338
     14 C          64.6133   81.3346   14.0268 C.3     1  UNL1        0.1422
     15 O          63.4982   80.3820   14.3417 O.3     1  UNL1       -0.3538
     16 C          62.2251   80.4294   13.5498 C.3     1  UNL1        0.1422
     17 C          62.0671   81.4294   12.4430 C.3     1  UNL1        0.0338
     18 C          63.6451   86.1032   16.1870 C.3     1  UNL1        0.0047
     19 C          64.3999   86.3172   14.9086 C.3     1  UNL1        0.0226
     20 C          65.6102   85.4851   14.6040 C.3     1  UNL1        0.0047
     21 N          64.1502   91.2957   13.4415 N.pl3   1  UNL1       -0.2973
     22 H          63.5262   91.9989   13.1495 H       1  UNL1        0.1536
     23 C          65.4318   91.6674   14.1267 C.ar    1  UNL1        0.0601
     24 C          66.7121   91.7175   13.3467 C.ar    1  UNL1        0.0164
     25 C          67.9936   92.0893   14.0319 C.ar    1  UNL1        0.0127
     26 C          67.9948   92.4109   15.4970 C.ar    1  UNL1        0.0586
     27 CL         69.2764   92.7826   16.1822 Cl      1  UNL1       -0.0822
     28 C          66.7146   92.3607   16.2769 C.ar    1  UNL1        0.0240
     29 C          65.4330   91.9890   15.5918 C.ar    1  UNL1        0.0719
     30 CL         64.1527   91.9389   16.3717 Cl      1  UNL1       -0.0809
@<TRIPOS>BOND
     1    18    19    1
     2    19    20    1
     3    19     1    1
     4     1     2   ar
     5     2     3   ar
     6     3    21    1
     7    21    23    1
     8    23    24   ar
     9    24    25   ar
    10    25    26   ar
    11    26    27    1
    12    26    28   ar
    13    28    29   ar
    14    29    30    1
    15     3     4   ar
    16     4     5   ar
    17     5     6   ar
    18     6     7    1
    19     7     8    2
    20     7     9   am
    21     9    11    1
    22    11    12    1
    23    12    13    1
    24    13    14    1
    25    14    15    1
    26    15    16    1
    27    16    17    1
    28     6     1   ar
    29    17    12    1
    30    29    23   ar
    31    21    22    1
    32     9    10    1
@<TRIPOS>MOLECULE
*****
 30 32 0 0 0
SMALL
GASTEIGER

@<TRIPOS>ATOM
      1 C          63.0906   88.0203   12.5302 C.ar    1  UNL1       -0.0138
      2 C          63.1018   86.5535   12.8439 C.ar    1  UNL1        0.0303
      3 C          63.9012   86.0410   14.0051 C.ar    1  UNL1        0.1319
      4 N          64.6893   86.9952   14.8526 N.ar    1  UNL1       -0.2290
      5 C          64.6781   88.4619   14.5389 C.ar    1  UNL1        0.1045
      6 C          63.8788   88.9745   13.3777 C.ar    1  UNL1        0.0686
      7 C          63.8676   90.4413   13.0641 C.2     1  UNL1        0.2471
      8 O          63.1389   91.3951   13.9637 O.2     1  UNL1       -0.2701
      9 N          64.5852   90.9543   11.8509 N.am    1  UNL1       -0.3008
     10 H          65.0634   90.3283   11.2604 H       1  UNL1        0.1497
     11 C          64.5740   92.4212   11.5372 C.3     1  UNL1        0.0898
     12 C          65.7645   93.0573   10.8831 C.3     1  UNL1        0.0246
     13 C          66.9202   92.2091   10.4418 C.3     1  UNL1        0.0338
     14 C          68.1108   92.8452    9.7876 C.3     1  UNL1        0.1422
     15 O          68.1457   94.3296    9.5748 O.3     1  UNL1       -0.3538
     16 C          66.9899   95.1779   10.0161 C.3     1  UNL1        0.1422
     17 C          65.7993   94.5417   10.6702 C.3     1  UNL1        0.0338
     18 C          62.5619   88.0177    9.9866 C.3     1  UNL1        0.0047
     19 C          62.2913   88.5329   11.3690 C.3     1  UNL1        0.0226
     20 C          61.2214   89.5606   11.5903 C.3     1  UNL1        0.0047
     21 N          63.9123   84.5741   14.3188 N.pl3   1  UNL1       -0.2973
     22 H          64.0585   84.2696   15.2435 H       1  UNL1        0.1536
     23 C          63.7006   83.5713   13.2235 C.ar    1  UNL1        0.0601
     24 C          64.4950   83.6677   11.9547 C.ar    1  UNL1        0.0164
     25 C          64.2833   82.6649   10.8594 C.ar    1  UNL1        0.0127
     26 C          63.2773   81.5658   11.0329 C.ar    1  UNL1        0.0586
     27 CL         63.0657   80.5630    9.9377 Cl      1  UNL1       -0.0822
     28 C          62.4831   81.4695   12.3017 C.ar    1  UNL1        0.0240
     29 C          62.6947   82.4723   13.3970 C.ar    1  UNL1        0.0719
     30 CL         61.9004   82.3760   14.6658 Cl      1  UNL1       -0.0809
@<TRIPOS>BOND
     1    18    19    1
     2    19    20    1
     3    19     1    1
     4     1     2   ar
     5     2     3   ar
     6     3    21    1
     7    21    23    1
     8    23    24   ar
     9    24    25   ar
    10    25    26   ar
    11    26    27    1
    12    26    28   ar
    13    28    29   ar
    14    29    30    1
    15     3     4   ar
    16     4     5   ar
    17     5     6   ar
    18     6     7    1
    19     7     8    2
    20     7     9   am
    21     9    11    1
    22    11    12    1
    23    12    13    1
    24    13    14    1
    25    14    15    1
    26    15    16    1
    27    16    17    1
    28     6     1   ar
    29    17    12    1
    30    29    23   ar
    31    21    22    1
    32     9    10    1
@<TRIPOS>MOLECULE
*****
 30 32 0 0 0
SMALL
GASTEIGER

@<TRIPOS>ATOM
      1 C          63.5169   89.1016   12.7407 C.ar    1  UNL1       -0.0138
      2 C          62.6956   87.9305   12.2889 C.ar    1  UNL1        0.0303
      3 C          61.8383   88.0439   11.0633 C.ar    1  UNL1        0.1319
      4 N          61.8023   89.3284   10.2895 N.ar    1  UNL1       -0.2290
      5 C          62.6235   90.4994   10.7413 C.ar    1  UNL1        0.1045
      6 C          63.4808   90.3860   11.9669 C.ar    1  UNL1        0.0686
      7 C          64.3021   91.5572   12.4188 C.2     1  UNL1        0.2471
      8 O          64.0435   92.1827   13.7573 O.2     1  UNL1       -0.2701
      9 N          65.3818   92.1027   11.5320 N.am    1  UNL1       -0.3008
     10 H          65.5515   91.6921   10.6534 H       1  UNL1        0.1497
     11 C          66.2031   93.2738   11.9838 C.3     1  UNL1        0.0898
     12 C          66.5775   94.3488   11.0069 C.3     1  UNL1        0.0246
     13 C          67.2963   93.9930    9.7394 C.3     1  UNL1        0.0338
     14 C          67.6707   95.0680    8.7625 C.3     1  UNL1        0.1422
     15 O          67.3263   96.4987    9.0532 O.3     1  UNL1       -0.3538
     16 C          66.6075   96.8544   10.3208 C.3     1  UNL1        0.1422
     17 C          66.2331   95.7795   11.2977 C.3     1  UNL1        0.0338
     18 C          65.1982   90.1580   14.4161 C.3     1  UNL1        0.0047
     19 C          64.3742   88.9882   13.9664 C.3     1  UNL1        0.0226
     20 C          64.4074   87.7049   14.7423 C.3     1  UNL1        0.0047
     21 N          61.0171   86.8728   10.6115 N.pl3   1  UNL1       -0.2973
     22 H          60.2807   86.5414   11.1747 H       1  UNL1        0.1536
     23 C          61.3178   86.2066    9.3016 C.ar    1  UNL1        0.0601
     24 C          62.6423   85.5354    9.0882 C.ar    1  UNL1        0.0164
     25 C          62.9430   84.8693    7.7783 C.ar    1  UNL1        0.0127
     26 C          61.9193   84.8743    6.6819 C.ar    1  UNL1        0.0586
     27 CL         62.2201   84.2081    5.3720 Cl      1  UNL1       -0.0822
     28 C          60.5950   85.5455    6.8953 C.ar    1  UNL1        0.0240
     29 C          60.2942   86.2116    8.2052 C.ar    1  UNL1        0.0719
     30 CL         58.9698   86.8828    8.4186 Cl      1  UNL1       -0.0809
@<TRIPOS>BOND
     1    18    19    1
     2    19    20    1
     3    19     1    1
     4     1     2   ar
     5     2     3   ar
     6     3    21    1
     7    21    23    1
     8    23    24   ar
     9    24    25   ar
    10    25    26   ar
    11    26    27    1
    12    26    28   ar
    13    28    29   ar
    14    29    30    1
    15     3     4   ar
    16     4     5   ar
    17     5     6   ar
    18     6     7    1
    19     7     8    2
    20     7     9   am
    21     9    11    1
    22    11    12    1
    23    12    13    1
    24    13    14    1
    25    14    15    1
    26    15    16    1
    27    16    17    1
    28     6     1   ar
    29    17    12    1
    30    29    23   ar
    31    21    22    1
    32     9    10    1
@<TRIPOS>MOLECULE
*****
 30 32 0 0 0
SMALL
GASTEIGER

@<TRIPOS>ATOM
      1 C          63.8966   86.9486   13.9739 C.ar    1  UNL1       -0.0138
      2 C          64.4750   88.1723   14.6204 C.ar    1  UNL1        0.0303
      3 C          64.2890   89.5169   13.9820 C.ar    1  UNL1        0.1319
      4 N          63.5245   89.6378   12.6972 N.ar    1  UNL1       -0.2290
      5 C          62.9461   88.4141   12.0507 C.ar    1  UNL1        0.1045
      6 C          63.1321   87.0695   12.6891 C.ar    1  UNL1        0.0686
      7 C          62.5537   85.8458   12.0425 C.2     1  UNL1        0.2471
      8 O          61.1711   85.8867   11.4622 O.2     1  UNL1       -0.2701
      9 N          63.3578   84.5813   11.9762 N.am    1  UNL1       -0.3008
     10 H          64.2652   84.5545   12.3571 H       1  UNL1        0.1497
     11 C          62.7793   83.3576   11.3297 C.3     1  UNL1        0.0898
     12 C          62.6132   82.0967   12.1248 C.3     1  UNL1        0.0246
     13 C          62.9323   80.7699   11.5022 C.3     1  UNL1        0.0338
     14 C          62.7662   79.5088   12.2974 C.3     1  UNL1        0.1422
     15 O          62.2810   79.5746   13.7152 O.3     1  UNL1       -0.3538
     16 C          61.9618   80.9015   14.3378 C.3     1  UNL1        0.1422
     17 C          62.1279   82.1625   13.5426 C.3     1  UNL1        0.0338
     18 C          65.3262   84.8105   14.3408 C.3     1  UNL1        0.0047
     19 C          64.0826   85.6040   14.6123 C.3     1  UNL1        0.0226
     20 C          63.0251   85.0530   15.5222 C.3     1  UNL1        0.0047
     21 N          64.8675   90.7406   14.6286 N.pl3   1  UNL1       -0.2973
     22 H          64.9421   90.7907   15.6090 H       1  UNL1        0.1536
     23 C          65.3322   91.8878   13.7814 C.ar    1  UNL1        0.0601
     24 C          64.9720   91.9397   12.3262 C.ar    1  UNL1        0.0164
     25 C          65.4367   93.0870   11.4790 C.ar    1  UNL1        0.0127
     26 C          66.2618   94.1824   12.0870 C.ar    1  UNL1        0.0586
     27 CL         66.7265   95.3296   11.2398 Cl      1  UNL1       -0.0822
     28 C          66.6220   94.1304   13.5421 C.ar    1  UNL1        0.0240
     29 C          66.1572   92.9832   14.3893 C.ar    1  UNL1        0.0719
     30 CL         66.5175   92.9313   15.8446 Cl      1  UNL1       -0.0809
@<TRIPOS>BOND
     1    18    19    1
     2    19    20    1
     3    19     1    1
     4     1     2   ar
     5     2     3   ar
     6     3    21    1
     7    21    23    1
     8    23    24   ar
     9    24    25   ar
    10    25    26   ar
    11    26    27    1
    12    26    28   ar
    13    28    29   ar
    14    29    30    1
    15     3     4   ar
    16     4     5   ar
    17     5     6   ar
    18     6     7    1
    19     7     8    2
    20     7     9   am
    21     9    11    1
    22    11    12    1
    23    12    13    1
    24    13    14    1
    25    14    15    1
    26    15    16    1
    27    16    17    1
    28     6     1   ar
    29    17    12    1
    30    29    23   ar
    31    21    22    1
    32     9    10    1
@<TRIPOS>MOLECULE
*****
 30 32 0 0 0
SMALL
GASTEIGER

@<TRIPOS>ATOM
      1 C          63.6590   89.1082   13.0858 C.ar    1  UNL1       -0.0138
      2 C          63.0611   87.7862   12.7056 C.ar    1  UNL1        0.0303
      3 C          62.4447   87.6038   11.3504 C.ar    1  UNL1        0.1319
      4 N          62.4263   88.7434   10.3753 N.ar    1  UNL1       -0.2290
      5 C          63.0242   90.0654   10.7554 C.ar    1  UNL1        0.1045
      6 C          63.6406   90.2479   12.1107 C.ar    1  UNL1        0.0686
      7 C          64.2386   91.5700   12.4909 C.2     1  UNL1        0.2471
      8 O          63.9161   92.1844   13.8208 O.2     1  UNL1       -0.2701
      9 N          65.1590   92.2777   11.5412 N.am    1  UNL1       -0.3008
     10 H          65.3707   91.8745   10.6684 H       1  UNL1        0.1497
     11 C          65.7570   93.5998   11.9214 C.3     1  UNL1        0.0898
     12 C          66.3625   94.4797   10.8683 C.3     1  UNL1        0.0246
     13 C          66.3101   95.9715   11.0163 C.3     1  UNL1        0.0338
     14 C          66.9156   96.8514    9.9632 C.3     1  UNL1        0.1422
     15 O          67.5735   96.2396    8.7620 O.3     1  UNL1       -0.3538
     16 C          67.6258   94.7478    8.6139 C.3     1  UNL1        0.1422
     17 C          67.0203   93.8679    9.6671 C.3     1  UNL1        0.0338
     18 C          63.4942   88.9425   15.6734 C.3     1  UNL1        0.0047
     19 C          64.2754   89.2907   14.4411 C.3     1  UNL1        0.0226
     20 C          65.6730   89.8212   14.5642 C.3     1  UNL1        0.0047
     21 N          61.8467   86.2816   10.9702 N.pl3   1  UNL1       -0.2973
     22 H          61.0605   86.2488   10.3786 H       1  UNL1        0.1536
     23 C          62.4467   85.0095   11.4915 C.ar    1  UNL1        0.0601
     24 C          62.2361   84.6123   12.9226 C.ar    1  UNL1        0.0164
     25 C          62.8360   83.3401   13.4439 C.ar    1  UNL1        0.0127
     26 C          63.6466   82.4652   12.5341 C.ar    1  UNL1        0.0586
     27 CL         64.2465   81.1931   13.0554 Cl      1  UNL1       -0.0822
     28 C          63.8572   82.8625   11.1031 C.ar    1  UNL1        0.0240
     29 C          63.2572   84.1346   10.5818 C.ar    1  UNL1        0.0719
     30 CL         63.4678   84.5319    9.1507 Cl      1  UNL1       -0.0809
@<TRIPOS>BOND
     1    18    19    1
     2    19    20    1
     3    19     1    1
     4     1     2   ar
     5     2     3   ar
     6     3    21    1
     7    21    23    1
     8    23    24   ar
     9    24    25   ar
    10    25    26   ar
    11    26    27    1
    12    26    28   ar
    13    28    29   ar
    14    29    30    1
    15     3     4   ar
    16     4     5   ar
    17     5     6   ar
    18     6     7    1
    19     7     8    2
    20     7     9   am
    21     9    11    1
    22    11    12    1
    23    12    13    1
    24    13    14    1
    25    14    15    1
    26    15    16    1
    27    16    17    1
    28     6     1   ar
    29    17    12    1
    30    29    23   ar
    31    21    22    1
    32     9    10    1
