@<TRIPOS>MOLECULE
*****
 33 37 0 0 0
SMALL
GASTEIGER

@<TRIPOS>ATOM
      1 C          62.8963   90.8166   11.8219 C.3     1  UNL1        0.0749
      2 C          64.1737   91.5879   11.6696 C.3     1  UNL1        0.0444
      3 C          65.1096   91.7260   12.8337 C.ar    1  UNL1       -0.0101
      4 C          64.7681   91.0929   14.1499 C.ar    1  UNL1       -0.0091
      5 C          65.7041   91.2310   15.3139 C.ar    1  UNL1       -0.0032
      6 C          66.9815   92.0023   15.1617 C.ar    1  UNL1        0.0010
      7 C          67.3231   92.6354   13.8455 C.ar    1  UNL1        0.0142
      8 C          66.3872   92.4973   12.6815 C.ar    1  UNL1        0.0436
      9 C          63.4906   90.3216   14.3021 C.3     1  UNL1        0.0954
     10 N          62.5547   90.1835   13.1381 N.3     1  UNL1       -0.2934
     11 H          61.6605   90.5771   13.4310 H       1  UNL1        0.1236
     12 N          66.7287   93.1305   11.3653 N.pl3   1  UNL1       -0.3049
     13 C          66.1654   94.4749   11.0111 C.3     1  UNL1        0.1079
     14 C          66.5070   95.1080    9.6948 C.3     1  UNL1        0.0903
     15 N          67.4118   94.3967    8.7328 N.3     1  UNL1       -0.2946
     16 C          67.9751   93.0524    9.0870 C.3     1  UNL1        0.0903
     17 C          67.6335   92.4193   10.4032 C.3     1  UNL1        0.1079
     18 H          68.2064   95.0139    8.5647 H       1  UNL1        0.1233
     19 C          61.9603   90.6785   10.6578 C.3     1  UNL1        0.0885
     20 N          60.8080   89.7211   10.7315 N.3     1  UNL1       -0.2692
     21 C          60.8361   88.4508    9.9343 C.3     1  UNL1        0.0978
     22 C          60.1332   88.3801    8.6111 C.3     1  UNL1        0.0224
     23 C          60.1613   87.1098    7.8139 C.3     1  UNL1        0.0065
     24 C          60.8923   85.9102    8.3398 C.3     1  UNL1        0.0277
     25 C          61.5952   85.9809    9.6631 C.ar    1  UNL1       -0.0073
     26 C          62.3262   84.7814   10.1891 C.ar    1  UNL1       -0.0015
     27 C          63.0291   84.8521   11.5123 C.ar    1  UNL1        0.0203
     28 C          63.0010   86.1224   12.3095 C.ar    1  UNL1        0.0985
     29 N          62.2700   87.3220   11.7835 N.ar    1  UNL1       -0.2471
     30 C          61.5671   87.2512   10.4603 C.ar    1  UNL1        0.0695
     31 C          59.0664   88.9813   12.5119 C.3     1  UNL1        0.0173
     32 C          59.6274   90.0340   11.6025 C.3     1  UNL1        0.0579
     33 C          59.0080   91.3995   11.5640 C.3     1  UNL1        0.0173
@<TRIPOS>BOND
     1    31    32    1
     2    32    33    1
     3    32    20    1
     4    20    19    1
     5     1    19    1
     6     1     2    1
     7     2     3    1
     8     3     4   ar
     9     4     5   ar
    10     5     6   ar
    11     6     7   ar
    12     7     8   ar
    13     8    12    1
    14    12    13    1
    15    13    14    1
    16    14    15    1
    17    15    16    1
    18    16    17    1
    19     4     9    1
    20     9    10    1
    21    21    20    1
    22    21    22    1
    23    22    23    1
    24    23    24    1
    25    24    25    1
    26    25    26   ar
    27    26    27   ar
    28    27    28   ar
    29    28    29   ar
    30    29    30   ar
    31    10     1    1
    32    30    21    1
    33     8     3   ar
    34    17    12    1
    35    30    25   ar
    36    15    18    1
    37    10    11    1
@<TRIPOS>MOLECULE
*****
 33 37 0 0 0
SMALL
GASTEIGER

@<TRIPOS>ATOM
      1 C          63.0799   90.9277   12.2751 C.3     1  UNL1        0.0749
      2 C          64.3577   91.6702   12.0185 C.3     1  UNL1        0.0444
      3 C          65.3261   91.9061   13.1394 C.ar    1  UNL1       -0.0101
      4 C          65.0168   91.3995   14.5169 C.ar    1  UNL1       -0.0091
      5 C          65.9853   91.6354   15.6378 C.ar    1  UNL1       -0.0032
      6 C          67.2631   92.3780   15.3812 C.ar    1  UNL1        0.0010
      7 C          67.5724   92.8846   14.0036 C.ar    1  UNL1        0.0142
      8 C          66.6040   92.6486   12.8827 C.ar    1  UNL1        0.0436
      9 C          63.7390   90.6570   14.7736 C.3     1  UNL1        0.0954
     10 N          62.7706   90.4211   13.6527 N.3     1  UNL1       -0.2934
     11 H          61.8873   90.8480   13.9320 H       1  UNL1        0.1236
     12 N          66.9133   93.1553   11.5052 N.pl3   1  UNL1       -0.3049
     13 C          66.3909   94.4897   11.0619 C.3     1  UNL1        0.1079
     14 C          66.7002   94.9963    9.6844 C.3     1  UNL1        0.0903
     15 N          67.5320   94.1685    8.7501 N.3     1  UNL1       -0.2946
     16 C          68.0544   92.8341    9.1933 C.3     1  UNL1        0.0903
     17 C          67.7451   92.3275   10.5709 C.3     1  UNL1        0.1079
     18 H          68.3432   94.7335    8.4988 H       1  UNL1        0.1233
     19 C          62.1114   90.6917   11.1542 C.3     1  UNL1        0.0885
     20 N          61.0709   89.6182   11.2756 N.3     1  UNL1       -0.2692
     21 C          61.3729   88.2248   10.8096 C.3     1  UNL1        0.0978
     22 C          62.3055   87.3553   11.5996 C.3     1  UNL1        0.0224
     23 C          62.6075   85.9619   11.1336 C.3     1  UNL1        0.0065
     24 C          61.9769   85.4380    9.8775 C.3     1  UNL1        0.0277
     25 C          61.0442   86.3075    9.0874 C.ar    1  UNL1       -0.0073
     26 C          60.4136   85.7835    7.8313 C.ar    1  UNL1       -0.0015
     27 C          59.4810   86.6530    7.0413 C.ar    1  UNL1        0.0203
     28 C          59.1790   88.0464    7.5073 C.ar    1  UNL1        0.0985
     29 N          59.8096   88.5704    8.7634 N.ar    1  UNL1       -0.2471
     30 C          60.7422   87.7009    9.5534 C.ar    1  UNL1        0.0695
     31 C          59.0645   88.9646   12.7913 C.3     1  UNL1        0.0173
     32 C          59.7282   89.9381   11.8631 C.3     1  UNL1        0.0579
     33 C          59.0494   91.2316   11.5223 C.3     1  UNL1        0.0173
@<TRIPOS>BOND
     1    31    32    1
     2    32    33    1
     3    32    20    1
     4    20    19    1
     5     1    19    1
     6     1     2    1
     7     2     3    1
     8     3     4   ar
     9     4     5   ar
    10     5     6   ar
    11     6     7   ar
    12     7     8   ar
    13     8    12    1
    14    12    13    1
    15    13    14    1
    16    14    15    1
    17    15    16    1
    18    16    17    1
    19     4     9    1
    20     9    10    1
    21    21    20    1
    22    21    22    1
    23    22    23    1
    24    23    24    1
    25    24    25    1
    26    25    26   ar
    27    26    27   ar
    28    27    28   ar
    29    28    29   ar
    30    29    30   ar
    31    10     1    1
    32    30    21    1
    33     8     3   ar
    34    17    12    1
    35    30    25   ar
    36    15    18    1
    37    10    11    1
@<TRIPOS>MOLECULE
*****
 33 37 0 0 0
SMALL
GASTEIGER

@<TRIPOS>ATOM
      1 C          64.4924   85.9209   14.6899 C.3     1  UNL1        0.0749
      2 C          63.8240   85.4964   13.4159 C.3     1  UNL1        0.0444
      3 C          63.2929   84.1005   13.2766 C.ar    1  UNL1       -0.0101
      4 C          63.4304   83.1291   14.4112 C.ar    1  UNL1       -0.0091
      5 C          62.8994   81.7331   14.2718 C.ar    1  UNL1       -0.0032
      6 C          62.2309   81.3087   12.9979 C.ar    1  UNL1        0.0010
      7 C          62.0934   82.2802   11.8633 C.ar    1  UNL1        0.0142
      8 C          62.6244   83.6760   12.0026 C.ar    1  UNL1        0.0436
      9 C          64.0989   83.5535   15.6851 C.3     1  UNL1        0.0954
     10 N          64.6299   84.9494   15.8245 N.3     1  UNL1       -0.2934
     11 H          65.6272   84.8667   16.0221 H       1  UNL1        0.1236
     12 N          62.4869   84.6475   10.8680 N.pl3   1  UNL1       -0.3049
     13 C          61.5485   85.8117   10.9870 C.3     1  UNL1        0.1079
     14 C          61.4110   86.7832    9.8524 C.3     1  UNL1        0.0903
     15 N          62.2120   86.5905    8.5988 N.3     1  UNL1       -0.2946
     16 C          63.1504   85.4263    8.4799 C.3     1  UNL1        0.0903
     17 C          63.2879   84.4549    9.6145 C.3     1  UNL1        0.1079
     18 H          62.7720   87.4339    8.4746 H       1  UNL1        0.1233
     19 C          65.0235   87.3168   14.8292 C.3     1  UNL1        0.0885
     20 N          64.0750   88.4768   14.8966 N.3     1  UNL1       -0.2692
     21 C          63.8672   89.3467   13.6923 C.3     1  UNL1        0.0978
     22 C          62.8345   88.9769   12.6692 C.3     1  UNL1        0.0224
     23 C          62.6268   89.8467   11.4649 C.3     1  UNL1        0.0065
     24 C          63.4517   91.0863   11.2837 C.3     1  UNL1        0.0277
     25 C          64.4845   91.4561   12.3069 C.ar    1  UNL1       -0.0073
     26 C          65.3094   92.6957   12.1257 C.ar    1  UNL1       -0.0015
     27 C          66.3421   93.0654   13.1488 C.ar    1  UNL1        0.0203
     28 C          66.5499   92.1956   14.3530 C.ar    1  UNL1        0.0985
     29 N          65.7249   90.9561   14.5342 N.ar    1  UNL1       -0.2471
     30 C          64.6922   90.5863   13.5111 C.ar    1  UNL1        0.0695
     31 C          62.8130   87.6381   17.0070 C.3     1  UNL1        0.0173
     32 C          63.3341   88.7671   16.1682 C.3     1  UNL1        0.0579
     33 C          63.1145   90.1865   16.6009 C.3     1  UNL1        0.0173
@<TRIPOS>BOND
     1    31    32    1
     2    32    33    1
     3    32    20    1
     4    20    19    1
     5     1    19    1
     6     1     2    1
     7     2     3    1
     8     3     4   ar
     9     4     5   ar
    10     5     6   ar
    11     6     7   ar
    12     7     8   ar
    13     8    12    1
    14    12    13    1
    15    13    14    1
    16    14    15    1
    17    15    16    1
    18    16    17    1
    19     4     9    1
    20     9    10    1
    21    21    20    1
    22    21    22    1
    23    22    23    1
    24    23    24    1
    25    24    25    1
    26    25    26   ar
    27    26    27   ar
    28    27    28   ar
    29    28    29   ar
    30    29    30   ar
    31    10     1    1
    32    30    21    1
    33     8     3   ar
    34    17    12    1
    35    30    25   ar
    36    15    18    1
    37    10    11    1
@<TRIPOS>MOLECULE
*****
 33 37 0 0 0
SMALL
GASTEIGER

@<TRIPOS>ATOM
      1 C          63.1299   91.2847   10.9031 C.3     1  UNL1        0.0749
      2 C          63.5985   90.8053   12.2449 C.3     1  UNL1        0.0444
      3 C          64.8671   91.3471   12.8339 C.ar    1  UNL1       -0.0101
      4 C          65.6672   92.3685   12.0810 C.ar    1  UNL1       -0.0091
      5 C          66.9359   92.9104   12.6700 C.ar    1  UNL1       -0.0032
      6 C          67.4045   92.4309   14.0118 C.ar    1  UNL1        0.0010
      7 C          66.6044   91.4095   14.7647 C.ar    1  UNL1        0.0142
      8 C          65.3358   90.8677   14.1757 C.ar    1  UNL1        0.0436
      9 C          65.1986   92.8480   10.7392 C.3     1  UNL1        0.0954
     10 N          63.9300   92.3061   10.1503 N.3     1  UNL1       -0.2934
     11 H          64.1774   91.8847    9.2549 H       1  UNL1        0.1236
     12 N          64.5358   89.8463   14.9286 N.pl3   1  UNL1       -0.3049
     13 C          63.6237   90.2776   16.0387 C.3     1  UNL1        0.1079
     14 C          62.8236   89.2562   16.7915 C.3     1  UNL1        0.0903
     15 N          62.9357   87.8037   16.4343 N.3     1  UNL1       -0.2946
     16 C          63.8478   87.3725   15.3243 C.3     1  UNL1        0.0903
     17 C          64.6478   88.3938   14.5714 C.3     1  UNL1        0.1079
     18 H          61.9983   87.4887   16.1843 H       1  UNL1        0.1233
     19 C          61.8612   90.7429   10.3141 C.3     1  UNL1        0.0885
     20 N          61.1215   89.6401   11.0118 N.3     1  UNL1       -0.2692
     21 C          61.5297   88.2123   10.8003 C.3     1  UNL1        0.0978
     22 C          62.4600   87.5467   11.7706 C.3     1  UNL1        0.0224
     23 C          62.8682   86.1189   11.5592 C.3     1  UNL1        0.0065
     24 C          62.3462   85.3567   10.3774 C.3     1  UNL1        0.0277
     25 C          61.4159   86.0224    9.4071 C.ar    1  UNL1       -0.0073
     26 C          60.8939   85.2602    8.2253 C.ar    1  UNL1       -0.0015
     27 C          59.9636   85.9259    7.2550 C.ar    1  UNL1        0.0203
     28 C          59.5554   87.3537    7.4665 C.ar    1  UNL1        0.0985
     29 N          60.0774   88.1158    8.6482 N.ar    1  UNL1       -0.2471
     30 C          61.0077   87.4502    9.6185 C.ar    1  UNL1        0.0695
     31 C          59.7723   89.1820   13.1843 C.3     1  UNL1        0.0173
     32 C          59.9736   89.9652   11.9210 C.3     1  UNL1        0.0579
     33 C          59.0269   91.0735   11.5668 C.3     1  UNL1        0.0173
@<TRIPOS>BOND
     1    31    32    1
     2    32    33    1
     3    32    20    1
     4    20    19    1
     5     1    19    1
     6     1     2    1
     7     2     3    1
     8     3     4   ar
     9     4     5   ar
    10     5     6   ar
    11     6     7   ar
    12     7     8   ar
    13     8    12    1
    14    12    13    1
    15    13    14    1
    16    14    15    1
    17    15    16    1
    18    16    17    1
    19     4     9    1
    20     9    10    1
    21    21    20    1
    22    21    22    1
    23    22    23    1
    24    23    24    1
    25    24    25    1
    26    25    26   ar
    27    26    27   ar
    28    27    28   ar
    29    28    29   ar
    30    29    30   ar
    31    10     1    1
    32    30    21    1
    33     8     3   ar
    34    17    12    1
    35    30    25   ar
    36    15    18    1
    37    10    11    1
@<TRIPOS>MOLECULE
*****
 33 37 0 0 0
SMALL
GASTEIGER

@<TRIPOS>ATOM
      1 C          63.3539   88.7425   13.0906 C.3     1  UNL1        0.0749
      2 C          63.1806   87.4676   12.3194 C.3     1  UNL1        0.0444
      3 C          62.1189   87.3676   11.2647 C.ar    1  UNL1       -0.0101
      4 C          61.2304   88.5424   10.9810 C.ar    1  UNL1       -0.0091
      5 C          60.1685   88.4423    9.9262 C.ar    1  UNL1       -0.0032
      6 C          59.9953   87.1674    9.1551 C.ar    1  UNL1        0.0010
      7 C          60.8838   85.9926    9.4387 C.ar    1  UNL1        0.0142
      8 C          61.9455   86.0927   10.4935 C.ar    1  UNL1        0.0436
      9 C          61.4036   89.8172   11.7522 C.3     1  UNL1        0.0954
     10 N          62.4654   89.9173   12.8069 N.3     1  UNL1       -0.2934
     11 H          61.9917   90.1460   13.6808 H       1  UNL1        0.1236
     12 N          62.8340   84.9179   10.7771 N.pl3   1  UNL1       -0.3049
     13 C          63.0026   84.4276   12.1847 C.3     1  UNL1        0.1079
     14 C          63.8910   83.2528   12.4684 C.3     1  UNL1        0.0903
     15 N          64.6110   82.5683   11.3444 N.3     1  UNL1       -0.2946
     16 C          64.4424   83.0586    9.9369 C.3     1  UNL1        0.0903
     17 C          63.5540   84.2334    9.6532 C.3     1  UNL1        0.1079
     18 H          64.3125   81.5930   11.3542 H       1  UNL1        0.1233
     19 C          64.4157   88.8426   14.1454 C.3     1  UNL1        0.0885
     20 N          64.6718   90.1525   14.8298 N.3     1  UNL1       -0.2692
     21 C          65.7989   91.0301   14.3722 C.3     1  UNL1        0.0978
     22 C          67.0136   91.2021   15.2352 C.3     1  UNL1        0.0224
     23 C          68.1407   92.0797   14.7776 C.3     1  UNL1        0.0065
     24 C          68.0531   92.7853   13.4568 C.3     1  UNL1        0.0277
     25 C          66.8384   92.6134   12.5937 C.ar    1  UNL1       -0.0073
     26 C          66.7508   93.3191   11.2730 C.ar    1  UNL1       -0.0015
     27 C          65.5361   93.1471   10.4099 C.ar    1  UNL1        0.0203
     28 C          64.4090   92.2695   10.8676 C.ar    1  UNL1        0.0985
     29 N          64.4966   91.5639   12.1883 N.ar    1  UNL1       -0.2471
     30 C          65.7113   91.7358   13.0514 C.ar    1  UNL1        0.0695
     31 C          62.8359   89.6157   16.5880 C.3     1  UNL1        0.0173
     32 C          63.8008   90.5849   15.9720 C.3     1  UNL1        0.0579
     33 C          63.8948   91.9865   16.4981 C.3     1  UNL1        0.0173
@<TRIPOS>BOND
     1    31    32    1
     2    32    33    1
     3    32    20    1
     4    20    19    1
     5     1    19    1
     6     1     2    1
     7     2     3    1
     8     3     4   ar
     9     4     5   ar
    10     5     6   ar
    11     6     7   ar
    12     7     8   ar
    13     8    12    1
    14    12    13    1
    15    13    14    1
    16    14    15    1
    17    15    16    1
    18    16    17    1
    19     4     9    1
    20     9    10    1
    21    21    20    1
    22    21    22    1
    23    22    23    1
    24    23    24    1
    25    24    25    1
    26    25    26   ar
    27    26    27   ar
    28    27    28   ar
    29    28    29   ar
    30    29    30   ar
    31    10     1    1
    32    30    21    1
    33     8     3   ar
    34    17    12    1
    35    30    25   ar
    36    15    18    1
    37    10    11    1
@<TRIPOS>MOLECULE
*****
 33 37 0 0 0
SMALL
GASTEIGER

@<TRIPOS>ATOM
      1 C          61.1600   89.2310   11.7539 C.3     1  UNL1        0.0749
      2 C          61.6628   87.8703   11.3720 C.3     1  UNL1        0.0444
      3 C          61.2956   87.2810   10.0424 C.ar    1  UNL1       -0.0101
      4 C          60.4257   88.0524    9.0947 C.ar    1  UNL1       -0.0091
      5 C          60.0586   87.4631    7.7650 C.ar    1  UNL1       -0.0032
      6 C          60.5613   86.1024    7.3831 C.ar    1  UNL1        0.0010
      7 C          61.4312   85.3310    8.3309 C.ar    1  UNL1        0.0142
      8 C          61.7983   85.9203    9.6605 C.ar    1  UNL1        0.0436
      9 C          59.9230   89.4131    9.4765 C.3     1  UNL1        0.0954
     10 N          60.2902   90.0023   10.8061 N.3     1  UNL1       -0.2934
     11 H          59.4157   90.1909   11.2962 H       1  UNL1        0.1236
     12 N          62.6682   85.1489   10.6083 N.pl3   1  UNL1       -0.3049
     13 C          63.6089   84.1054   10.0826 C.3     1  UNL1        0.1079
     14 C          64.4788   83.3340   11.0304 C.3     1  UNL1        0.0903
     15 N          64.4079   83.6061   12.5039 N.3     1  UNL1       -0.2946
     16 C          63.4672   84.6495   13.0295 C.3     1  UNL1        0.0903
     17 C          62.5974   85.4209   12.0817 C.3     1  UNL1        0.1079
     18 H          65.3454   83.8798   12.7982 H       1  UNL1        0.1233
     19 C          61.5272   89.8203   13.0836 C.3     1  UNL1        0.0885
     20 N          62.9702   89.9741   13.4630 N.3     1  UNL1       -0.2692
     21 C          63.8444   90.9354   12.7136 C.3     1  UNL1        0.0978
     22 C          63.7039   91.0742   11.2267 C.3     1  UNL1        0.0224
     23 C          64.5781   92.0355   10.4772 C.3     1  UNL1        0.0065
     24 C          65.5929   92.8578   11.2146 C.3     1  UNL1        0.0277
     25 C          65.7336   92.7190   12.7016 C.ar    1  UNL1       -0.0073
     26 C          66.7484   93.5413   13.4390 C.ar    1  UNL1       -0.0015
     27 C          66.8890   93.4024   14.9259 C.ar    1  UNL1        0.0203
     28 C          66.0147   92.4412   15.6754 C.ar    1  UNL1        0.0985
     29 N          64.9999   91.6188   14.9379 N.ar    1  UNL1       -0.2471
     30 C          64.8593   91.7577   13.4511 C.ar    1  UNL1        0.0695
     31 C          63.1672   89.4918   16.0084 C.3     1  UNL1        0.0173
     32 C          63.5390   89.1667   14.5920 C.3     1  UNL1        0.0579
     33 C          64.4796   88.0342   14.3046 C.3     1  UNL1        0.0173
@<TRIPOS>BOND
     1    31    32    1
     2    32    33    1
     3    32    20    1
     4    20    19    1
     5     1    19    1
     6     1     2    1
     7     2     3    1
     8     3     4   ar
     9     4     5   ar
    10     5     6   ar
    11     6     7   ar
    12     7     8   ar
    13     8    12    1
    14    12    13    1
    15    13    14    1
    16    14    15    1
    17    15    16    1
    18    16    17    1
    19     4     9    1
    20     9    10    1
    21    21    20    1
    22    21    22    1
    23    22    23    1
    24    23    24    1
    25    24    25    1
    26    25    26   ar
    27    26    27   ar
    28    27    28   ar
    29    28    29   ar
    30    29    30   ar
    31    10     1    1
    32    30    21    1
    33     8     3   ar
    34    17    12    1
    35    30    25   ar
    36    15    18    1
    37    10    11    1
@<TRIPOS>MOLECULE
*****
 33 37 0 0 0
SMALL
GASTEIGER

@<TRIPOS>ATOM
      1 C          63.5696   88.2108   13.7508 C.3     1  UNL1        0.0749
      2 C          63.0866   87.3275   12.6389 C.3     1  UNL1        0.0444
      3 C          63.3706   85.8551   12.6735 C.ar    1  UNL1       -0.0101
      4 C          64.1376   85.2659   13.8200 C.ar    1  UNL1       -0.0091
      5 C          64.4215   83.7934   13.8546 C.ar    1  UNL1       -0.0032
      6 C          63.9386   82.9101   12.7426 C.ar    1  UNL1        0.0010
      7 C          63.1716   83.4993   11.5961 C.ar    1  UNL1        0.0142
      8 C          62.8876   84.9717   11.5615 C.ar    1  UNL1        0.0436
      9 C          64.6205   86.1492   14.9320 C.3     1  UNL1        0.0954
     10 N          64.3365   87.6216   14.8974 N.3     1  UNL1       -0.2934
     11 H          65.2390   88.0962   14.9228 H       1  UNL1        0.1236
     12 N          62.1206   85.5609   10.4149 N.pl3   1  UNL1       -0.3049
     13 C          62.5576   85.2950    9.0047 C.3     1  UNL1        0.1079
     14 C          61.7906   85.8842    7.8582 C.3     1  UNL1        0.0903
     15 N          60.5867   86.7393    8.1217 N.3     1  UNL1       -0.2946
     16 C          60.1497   87.0051    9.5318 C.3     1  UNL1        0.0903
     17 C          60.9167   86.4160   10.6784 C.3     1  UNL1        0.1079
     18 H          59.8002   86.2942    7.6487 H       1  UNL1        0.1233
     19 C          63.2856   89.6833   13.7163 C.3     1  UNL1        0.0885
     20 N          63.2789   90.4153   12.4071 N.3     1  UNL1       -0.2692
     21 C          64.3051   91.4749   12.1349 C.3     1  UNL1        0.0978
     22 C          64.5181   91.9709   10.7355 C.3     1  UNL1        0.0224
     23 C          65.5444   93.0305   10.4633 C.3     1  UNL1        0.0065
     24 C          66.3577   93.5941   11.5906 C.3     1  UNL1        0.0277
     25 C          66.1447   93.0980   12.9902 C.ar    1  UNL1       -0.0073
     26 C          66.9580   93.6616   14.1175 C.ar    1  UNL1       -0.0015
     27 C          66.7450   93.1656   15.5170 C.ar    1  UNL1        0.0203
     28 C          65.7188   92.1060   15.7891 C.ar    1  UNL1        0.0985
     29 N          64.9055   91.5424   14.6618 N.ar    1  UNL1       -0.2471
     30 C          65.1184   92.0384   13.2623 C.ar    1  UNL1        0.0695
     31 C          60.7875   90.2003   11.7022 C.3     1  UNL1        0.0173
     32 C          62.2458   90.0877   11.3699 C.3     1  UNL1        0.0579
     33 C          62.6713   89.6475   10.0005 C.3     1  UNL1        0.0173
@<TRIPOS>BOND
     1    31    32    1
     2    32    33    1
     3    32    20    1
     4    20    19    1
     5     1    19    1
     6     1     2    1
     7     2     3    1
     8     3     4   ar
     9     4     5   ar
    10     5     6   ar
    11     6     7   ar
    12     7     8   ar
    13     8    12    1
    14    12    13    1
    15    13    14    1
    16    14    15    1
    17    15    16    1
    18    16    17    1
    19     4     9    1
    20     9    10    1
    21    21    20    1
    22    21    22    1
    23    22    23    1
    24    23    24    1
    25    24    25    1
    26    25    26   ar
    27    26    27   ar
    28    27    28   ar
    29    28    29   ar
    30    29    30   ar
    31    10     1    1
    32    30    21    1
    33     8     3   ar
    34    17    12    1
    35    30    25   ar
    36    15    18    1
    37    10    11    1
@<TRIPOS>MOLECULE
*****
 33 37 0 0 0
SMALL
GASTEIGER

@<TRIPOS>ATOM
      1 C          62.4231   87.4145   10.2843 C.3     1  UNL1        0.0749
      2 C          62.6897   86.6207   11.5288 C.3     1  UNL1        0.0444
      3 C          62.9913   85.1545   11.4329 C.ar    1  UNL1       -0.0101
      4 C          63.0263   84.4821   10.0925 C.ar    1  UNL1       -0.0091
      5 C          63.3279   83.0158    9.9966 C.ar    1  UNL1       -0.0032
      6 C          63.5944   82.2220   11.2411 C.ar    1  UNL1        0.0010
      7 C          63.5594   82.8944   12.5815 C.ar    1  UNL1        0.0142
      8 C          63.2578   84.3606   12.6774 C.ar    1  UNL1        0.0436
      9 C          62.7597   85.2759    8.8480 C.3     1  UNL1        0.0954
     10 N          62.4582   86.7421    8.9439 N.3     1  UNL1       -0.2934
     11 H          61.5411   86.8824    8.5201 H       1  UNL1        0.1236
     12 N          63.2228   85.0330   14.0178 N.pl3   1  UNL1       -0.3049
     13 C          62.1697   84.6576   15.0179 C.3     1  UNL1        0.1079
     14 C          62.1347   85.3300   16.3583 C.3     1  UNL1        0.0903
     15 N          63.1527   86.3778   16.6986 N.3     1  UNL1       -0.2946
     16 C          64.2057   86.7532   15.6985 C.3     1  UNL1        0.0903
     17 C          64.2408   86.0808   14.3581 C.3     1  UNL1        0.1079
     18 H          63.6415   86.0535   17.5331 H       1  UNL1        0.1233
     19 C          62.1215   88.8808   10.3802 C.3     1  UNL1        0.0885
     20 N          61.6226   89.4611   11.6703 N.3     1  UNL1       -0.2692
     21 C          62.5982   89.9395   12.7044 C.3     1  UNL1        0.0978
     22 C          62.4939   89.4483   14.1178 C.3     1  UNL1        0.0224
     23 C          63.4695   89.9266   15.1520 C.3     1  UNL1        0.0065
     24 C          64.5493   90.8962   14.7727 C.3     1  UNL1        0.0277
     25 C          64.6536   91.3875   13.3592 C.ar    1  UNL1       -0.0073
     26 C          65.7334   92.3570   12.9799 C.ar    1  UNL1       -0.0015
     27 C          65.8377   92.8482   11.5665 C.ar    1  UNL1        0.0203
     28 C          64.8621   92.3698   10.5323 C.ar    1  UNL1        0.0985
     29 N          63.7823   91.4003   10.9116 N.ar    1  UNL1       -0.2471
     30 C          63.6781   90.9091   12.3250 C.ar    1  UNL1        0.0695
     31 C          59.4168   88.4193   12.5640 C.3     1  UNL1        0.0173
     32 C          60.1481   89.5631   11.9262 C.3     1  UNL1        0.0579
     33 C          59.4050   90.8089   11.5444 C.3     1  UNL1        0.0173
@<TRIPOS>BOND
     1    31    32    1
     2    32    33    1
     3    32    20    1
     4    20    19    1
     5     1    19    1
     6     1     2    1
     7     2     3    1
     8     3     4   ar
     9     4     5   ar
    10     5     6   ar
    11     6     7   ar
    12     7     8   ar
    13     8    12    1
    14    12    13    1
    15    13    14    1
    16    14    15    1
    17    15    16    1
    18    16    17    1
    19     4     9    1
    20     9    10    1
    21    21    20    1
    22    21    22    1
    23    22    23    1
    24    23    24    1
    25    24    25    1
    26    25    26   ar
    27    26    27   ar
    28    27    28   ar
    29    28    29   ar
    30    29    30   ar
    31    10     1    1
    32    30    21    1
    33     8     3   ar
    34    17    12    1
    35    30    25   ar
    36    15    18    1
    37    10    11    1
@<TRIPOS>MOLECULE
*****
 33 37 0 0 0
SMALL
GASTEIGER

@<TRIPOS>ATOM
      1 C          64.2488   91.2996   12.4303 C.3     1  UNL1        0.0749
      2 C          63.9817   89.8405   12.6529 C.3     1  UNL1        0.0444
      3 C          63.1627   89.0682   11.6616 C.ar    1  UNL1       -0.0101
      4 C          62.6108   89.7550   10.4477 C.ar    1  UNL1       -0.0091
      5 C          61.7918   88.9826    9.4564 C.ar    1  UNL1       -0.0032
      6 C          61.5247   87.5235    9.6790 C.ar    1  UNL1        0.0010
      7 C          62.0767   86.8367   10.8929 C.ar    1  UNL1        0.0142
      8 C          62.8957   87.6090   11.8842 C.ar    1  UNL1        0.0436
      9 C          62.8778   91.2141   10.2251 C.3     1  UNL1        0.0954
     10 N          63.6968   91.9864   11.2164 N.3     1  UNL1       -0.2934
     11 H          63.1099   92.7504   11.5517 H       1  UNL1        0.1236
     12 N          63.4476   86.9222   13.0981 N.pl3   1  UNL1       -0.3049
     13 C          63.5358   85.4252   13.1378 C.3     1  UNL1        0.1079
     14 C          64.0877   84.7384   14.3518 C.3     1  UNL1        0.0903
     15 N          64.5515   85.5485   15.5260 N.3     1  UNL1       -0.2946
     16 C          64.4634   87.0453   15.4862 C.3     1  UNL1        0.0903
     17 C          63.9114   87.7322   14.2723 C.3     1  UNL1        0.1079
     18 H          65.5332   85.3152   15.6753 H       1  UNL1        0.1233
     19 C          65.0678   92.0720   13.4217 C.3     1  UNL1        0.0885
     20 N          66.5243   92.3182   13.1614 N.3     1  UNL1       -0.2692
     21 C          66.9892   92.6787   11.7815 C.3     1  UNL1        0.0978
     22 C          67.6570   91.6470   10.9216 C.3     1  UNL1        0.0224
     23 C          68.1218   92.0075    9.5418 C.3     1  UNL1        0.0065
     24 C          67.9188   93.3998    9.0219 C.3     1  UNL1        0.0277
     25 C          67.2510   94.4316    9.8818 C.ar    1  UNL1       -0.0073
     26 C          67.0480   95.8239    9.3619 C.ar    1  UNL1       -0.0015
     27 C          66.3802   96.8556   10.2218 C.ar    1  UNL1        0.0203
     28 C          65.9153   96.4950   11.6017 C.ar    1  UNL1        0.0985
     29 N          66.1183   95.1028   12.1216 N.ar    1  UNL1       -0.2471
     30 C          66.7861   94.0711   11.2616 C.ar    1  UNL1        0.0695
     31 C          67.0488   92.2566   15.7052 C.3     1  UNL1        0.0173
     32 C          67.5162   92.2038   14.2809 C.3     1  UNL1        0.0579
     33 C          68.9753   92.0367   13.9760 C.3     1  UNL1        0.0173
@<TRIPOS>BOND
     1    31    32    1
     2    32    33    1
     3    32    20    1
     4    20    19    1
     5     1    19    1
     6     1     2    1
     7     2     3    1
     8     3     4   ar
     9     4     5   ar
    10     5     6   ar
    11     6     7   ar
    12     7     8   ar
    13     8    12    1
    14    12    13    1
    15    13    14    1
    16    14    15    1
    17    15    16    1
    18    16    17    1
    19     4     9    1
    20     9    10    1
    21    21    20    1
    22    21    22    1
    23    22    23    1
    24    23    24    1
    25    24    25    1
    26    25    26   ar
    27    26    27   ar
    28    27    28   ar
    29    28    29   ar
    30    29    30   ar
    31    10     1    1
    32    30    21    1
    33     8     3   ar
    34    17    12    1
    35    30    25   ar
    36    15    18    1
    37    10    11    1
