@<TRIPOS>MOLECULE
*****
 35 40 0 0 0
SMALL
GASTEIGER

@<TRIPOS>ATOM
      1 C          59.7605   88.7587    9.2820 C.3     1  UNL1        0.0770
      2 N          60.8669   89.3533   10.1019 N.3     1  UNL1       -0.2695
      3 C          62.1210   89.8335    9.4335 C.3     1  UNL1        0.0938
      4 C          63.2274   90.4281   10.2534 C.3     1  UNL1        0.1081
      5 N          63.0798   90.5426   11.7417 N.pl3   1  UNL1       -0.3046
      6 C          61.8258   90.0625   12.4101 C.3     1  UNL1        0.1081
      7 C          60.7193   89.4678   11.5902 C.3     1  UNL1        0.0938
      8 C          64.1862   91.1373   12.5615 C.ar    1  UNL1        0.0493
      9 C          64.5254   90.5520   13.9004 C.ar    1  UNL1        0.0146
     10 C          65.6318   91.1467   14.7203 C.ar    1  UNL1        0.0028
     11 C          66.3990   92.3266   14.2014 C.ar    1  UNL1        0.0192
     12 C          66.0598   92.9118   12.8626 C.ar    1  UNL1        0.0821
     13 N          66.8270   94.0917   12.3437 N.ar    1  UNL1       -0.2496
     14 C          66.4877   94.6770   11.0049 C.ar    1  UNL1        0.0593
     15 C          67.2549   95.8569   10.4860 C.3     1  UNL1        0.0521
     16 C          65.3814   94.0823   10.1850 C.ar    1  UNL1        0.0148
     17 C          64.6142   92.9024   10.7039 C.ar    1  UNL1        0.0039
     18 C          64.9534   92.3172   12.0426 C.ar    1  UNL1        0.0310
     19 C          59.5265   87.2772    9.3001 C.3     1  UNL1        0.0468
     20 C          64.2013   83.7188   12.9333 C.ar    1  UNL1        0.1331
     21 N          65.0699   82.9323   11.9968 N.ar    1  UNL1       -0.2209
     22 C          64.6064   83.2041   10.5963 C.ar    1  UNL1        0.1828
     23 N          63.4515   84.1586   10.6673 N.ar    1  UNL1       -0.2851
     24 C          63.2012   84.4766   12.1116 C.ar    1  UNL1        0.1070
     25 C          62.0947   85.4154   12.4920 C.3     1  UNL1        0.2509
     26 O          61.2387   86.0360   11.4281 O.3     1  UNL1       -0.4678
     27 C          61.4890   85.7178    9.9837 C.ar    1  UNL1        0.1511
     28 C          60.6330   86.3384    8.9197 C.ar    1  UNL1        0.0146
     29 C          60.8833   86.0203    7.4754 C.ar    1  UNL1       -0.0011
     30 C          61.9897   85.0816    7.0950 C.ar    1  UNL1        0.0014
     31 C          62.8458   84.4611    8.1590 C.ar    1  UNL1        0.0206
     32 C          62.5954   84.7791    9.6033 C.ar    1  UNL1        0.0989
     33 C          64.7791   84.9871   15.1259 C.3     1  UNL1        0.0790
     34 C          64.3134   83.7431   14.4289 C.2     1  UNL1        0.1922
     35 O          63.9597   82.5237   15.2275 O.2     1  UNL1       -0.2897
@<TRIPOS>BOND
     1    33    34    1
     2    34    35    2
     3    34    20    1
     4    20    21   ar
     5    21    22   ar
     6    22    23   ar
     7    23    24   ar
     8    24    25    1
     9    25    26    1
    10    26    27    1
    11    27    28   ar
    12    28    19    1
    13    19     1    1
    14     1     2    1
    15     2     3    1
    16     3     4    1
    17     4     5    1
    18     5     8    1
    19     8     9   ar
    20     9    10   ar
    21    10    11   ar
    22    11    12   ar
    23    12    13   ar
    24    13    14   ar
    25    14    15    1
    26    14    16   ar
    27    16    17   ar
    28    17    18   ar
    29     5     6    1
    30     6     7    1
    31    28    29   ar
    32    29    30   ar
    33    30    31   ar
    34    31    32   ar
    35    24    20   ar
    36    32    27   ar
    37    32    23    1
    38     7     2    1
    39    18     8   ar
    40    18    12   ar
@<TRIPOS>MOLECULE
*****
 35 40 0 0 0
SMALL
GASTEIGER

@<TRIPOS>ATOM
      1 C          59.9944   88.4385   10.9600 C.3     1  UNL1        0.0770
      2 N          61.1598   89.3777   11.0587 N.3     1  UNL1       -0.2695
      3 C          61.6354   90.1133    9.8410 C.3     1  UNL1        0.0938
      4 C          62.8008   91.0525    9.9397 C.3     1  UNL1        0.1081
      5 N          63.4906   91.2561   11.2560 N.pl3   1  UNL1       -0.3046
      6 C          63.0150   90.5205   12.4737 C.3     1  UNL1        0.1081
      7 C          61.8496   89.5813   12.3750 C.3     1  UNL1        0.0938
      8 C          64.6560   92.1952   11.3547 C.ar    1  UNL1        0.0493
      9 C          64.9797   93.1115   10.2120 C.ar    1  UNL1        0.0146
     10 C          66.1451   94.0507   10.3107 C.ar    1  UNL1        0.0028
     11 C          66.9868   94.0736   11.5520 C.ar    1  UNL1        0.0192
     12 C          66.6632   93.1574   12.6947 C.ar    1  UNL1        0.0821
     13 N          67.5049   93.1803   13.9360 N.ar    1  UNL1       -0.2496
     14 C          67.1812   92.2640   15.0787 C.ar    1  UNL1        0.0593
     15 C          68.0230   92.2869   16.3201 C.3     1  UNL1        0.0521
     16 C          66.0158   91.3248   14.9801 C.ar    1  UNL1        0.0148
     17 C          65.1741   91.3019   13.7387 C.ar    1  UNL1        0.0039
     18 C          65.4977   92.2181   12.5960 C.ar    1  UNL1        0.0310
     19 C          59.7085   87.7310    9.6686 C.3     1  UNL1        0.0468
     20 C          64.1722   83.4371   12.7271 C.ar    1  UNL1        0.1331
     21 N          64.8709   82.6158   11.6844 N.ar    1  UNL1       -0.2209
     22 C          64.3441   83.0263   10.3413 C.ar    1  UNL1        0.1828
     23 N          63.3198   84.1013   10.5539 N.ar    1  UNL1       -0.2851
     24 C          63.2136   84.3552   12.0284 C.ar    1  UNL1        0.1070
     25 C          62.2576   85.3896   12.5444 C.3     1  UNL1        0.2509
     26 O          61.4079   86.1701   11.5858 O.3     1  UNL1       -0.4678
     27 C          61.5142   85.9161   10.1112 C.ar    1  UNL1        0.1511
     28 C          60.6645   86.6966    9.1526 C.ar    1  UNL1        0.0146
     29 C          60.7707   86.4427    7.6781 C.ar    1  UNL1       -0.0011
     30 C          61.7267   85.4083    7.1622 C.ar    1  UNL1        0.0014
     31 C          62.5764   84.6278    8.1208 C.ar    1  UNL1        0.0206
     32 C          62.4701   84.8817    9.5953 C.ar    1  UNL1        0.0989
     33 C          65.1338   84.4494   14.9181 C.3     1  UNL1        0.0790
     34 C          64.3933   83.3549   14.2085 C.2     1  UNL1        0.1922
     35 O          63.8739   82.1782   14.9801 O.2     1  UNL1       -0.2897
@<TRIPOS>BOND
     1    33    34    1
     2    34    35    2
     3    34    20    1
     4    20    21   ar
     5    21    22   ar
     6    22    23   ar
     7    23    24   ar
     8    24    25    1
     9    25    26    1
    10    26    27    1
    11    27    28   ar
    12    28    19    1
    13    19     1    1
    14     1     2    1
    15     2     3    1
    16     3     4    1
    17     4     5    1
    18     5     8    1
    19     8     9   ar
    20     9    10   ar
    21    10    11   ar
    22    11    12   ar
    23    12    13   ar
    24    13    14   ar
    25    14    15    1
    26    14    16   ar
    27    16    17   ar
    28    17    18   ar
    29     5     6    1
    30     6     7    1
    31    28    29   ar
    32    29    30   ar
    33    30    31   ar
    34    31    32   ar
    35    24    20   ar
    36    32    27   ar
    37    32    23    1
    38     7     2    1
    39    18     8   ar
    40    18    12   ar
@<TRIPOS>MOLECULE
*****
 35 40 0 0 0
SMALL
GASTEIGER

@<TRIPOS>ATOM
      1 C          58.8491   90.1824    5.9322 C.3     1  UNL1        0.0770
      2 N          59.6816   90.9511    4.9494 N.3     1  UNL1       -0.2695
      3 C          59.0678   92.0681    4.1584 C.3     1  UNL1        0.0938
      4 C          59.9004   92.8368    3.1756 C.3     1  UNL1        0.1081
      5 N          61.3467   92.4886    2.9837 N.pl3   1  UNL1       -0.3046
      6 C          61.9605   91.3717    3.7747 C.3     1  UNL1        0.1081
      7 C          61.1280   90.6029    4.7575 C.3     1  UNL1        0.0938
      8 C          62.1793   93.2573    2.0010 C.ar    1  UNL1        0.0493
      9 C          63.4920   93.8446    2.4276 C.ar    1  UNL1        0.0146
     10 C          64.3245   94.6133    1.4448 C.ar    1  UNL1        0.0028
     11 C          63.8444   94.7948    0.0354 C.ar    1  UNL1        0.0192
     12 C          62.5317   94.2076   -0.3913 C.ar    1  UNL1        0.0821
     13 N          62.0516   94.3892   -1.8007 N.ar    1  UNL1       -0.2496
     14 C          60.7388   93.8020   -2.2274 C.ar    1  UNL1        0.0593
     15 C          60.2587   93.9835   -3.6368 C.3     1  UNL1        0.0521
     16 C          59.9063   93.0333   -1.2446 C.ar    1  UNL1        0.0148
     17 C          60.3864   92.8517    0.1649 C.ar    1  UNL1        0.0039
     18 C          61.6991   93.4389    0.5915 C.ar    1  UNL1        0.0310
     19 C          59.2109   90.1882    7.3879 C.3     1  UNL1        0.0468
     20 C          63.2565   89.1155   12.8832 C.ar    1  UNL1        0.1331
     21 N          63.5081   87.6451   13.0398 N.ar    1  UNL1       -0.2209
     22 C          62.7843   86.9309   11.9372 C.ar    1  UNL1        0.1828
     23 N          62.0853   87.9598   11.0990 N.ar    1  UNL1       -0.2851
     24 C          62.3771   89.3100   11.6836 C.ar    1  UNL1        0.1070
     25 C          61.8044   90.5422   11.0482 C.3     1  UNL1        0.2509
     26 O          60.9399   90.4242    9.8281 O.3     1  UNL1       -0.4678
     27 C          60.6481   89.0740    9.2434 C.ar    1  UNL1        0.1511
     28 C          59.7836   88.9560    8.0233 C.ar    1  UNL1        0.0146
     29 C          59.4917   87.6058    7.4386 C.ar    1  UNL1       -0.0011
     30 C          60.0644   86.3737    8.0741 C.ar    1  UNL1        0.0014
     31 C          60.9289   86.4917    9.2942 C.ar    1  UNL1        0.0206
     32 C          61.2208   87.8418    9.8789 C.ar    1  UNL1        0.0989
     33 C          64.8773   91.1079   13.2743 C.3     1  UNL1        0.0790
     34 C          63.7904   90.2008   13.7703 C.2     1  UNL1        0.1922
     35 O          63.2376   90.3790   15.1532 O.2     1  UNL1       -0.2897
@<TRIPOS>BOND
     1    33    34    1
     2    34    35    2
     3    34    20    1
     4    20    21   ar
     5    21    22   ar
     6    22    23   ar
     7    23    24   ar
     8    24    25    1
     9    25    26    1
    10    26    27    1
    11    27    28   ar
    12    28    19    1
    13    19     1    1
    14     1     2    1
    15     2     3    1
    16     3     4    1
    17     4     5    1
    18     5     8    1
    19     8     9   ar
    20     9    10   ar
    21    10    11   ar
    22    11    12   ar
    23    12    13   ar
    24    13    14   ar
    25    14    15    1
    26    14    16   ar
    27    16    17   ar
    28    17    18   ar
    29     5     6    1
    30     6     7    1
    31    28    29   ar
    32    29    30   ar
    33    30    31   ar
    34    31    32   ar
    35    24    20   ar
    36    32    27   ar
    37    32    23    1
    38     7     2    1
    39    18     8   ar
    40    18    12   ar
@<TRIPOS>MOLECULE
*****
 35 40 0 0 0
SMALL
GASTEIGER

@<TRIPOS>ATOM
      1 C          59.6950   88.9387    7.7186 C.3     1  UNL1        0.0770
      2 N          60.5143   88.4924    8.8931 N.3     1  UNL1       -0.2695
      3 C          60.6295   89.3701   10.1041 C.3     1  UNL1        0.0938
      4 C          61.4487   88.9239   11.2786 C.3     1  UNL1        0.1081
      5 N          62.1529   87.5999   11.2422 N.pl3   1  UNL1       -0.3046
      6 C          62.0377   86.7222   10.0314 C.3     1  UNL1        0.1081
      7 C          61.2184   87.1685    8.8567 C.3     1  UNL1        0.0938
      8 C          62.9722   87.1537   12.4168 C.ar    1  UNL1        0.0493
      9 C          63.6095   88.1708   13.3165 C.ar    1  UNL1        0.0146
     10 C          64.4288   87.7245   14.4910 C.ar    1  UNL1        0.0028
     11 C          64.6108   86.2612   14.7659 C.ar    1  UNL1        0.0192
     12 C          63.9736   85.2441   13.8663 C.ar    1  UNL1        0.0821
     13 N          64.1556   83.7808   14.1411 N.ar    1  UNL1       -0.2496
     14 C          63.5183   82.7637   13.2414 C.ar    1  UNL1        0.0593
     15 C          63.7003   81.3004   13.5163 C.3     1  UNL1        0.0521
     16 C          62.6990   83.2100   12.0669 C.ar    1  UNL1        0.0148
     17 C          62.5169   84.6733   11.7920 C.ar    1  UNL1        0.0039
     18 C          63.1542   85.6904   12.6917 C.ar    1  UNL1        0.0310
     19 C          60.3683   89.5301    6.5157 C.3     1  UNL1        0.0468
     20 C          62.2563   93.6813    1.3275 C.ar    1  UNL1        0.1331
     21 N          61.0524   94.4068    0.8037 N.ar    1  UNL1       -0.2209
     22 C          59.8617   93.9658    1.6021 C.ar    1  UNL1        0.1828
     23 N          60.3296   92.9677    2.6194 N.ar    1  UNL1       -0.2851
     24 C          61.8096   92.7919    2.4496 C.ar    1  UNL1        0.1070
     25 C          62.5593   91.8446    3.3388 C.3     1  UNL1        0.2509
     26 O          61.8289   91.0731    4.3978 O.3     1  UNL1       -0.4678
     27 C          60.3489   91.2489    4.5675 C.ar    1  UNL1        0.1511
     28 C          59.6186   90.4774    5.6265 C.ar    1  UNL1        0.0146
     29 C          58.1387   90.6532    5.7963 C.ar    1  UNL1       -0.0011
     30 C          57.3891   91.6004    4.9071 C.ar    1  UNL1        0.0014
     31 C          58.1194   92.3720    3.8482 C.ar    1  UNL1        0.0206
     32 C          59.5993   92.1962    3.6784 C.ar    1  UNL1        0.0989
     33 C          64.7534   94.2647    1.7449 C.3     1  UNL1        0.0790
     34 C          63.6604   93.8208    0.8184 C.2     1  UNL1        0.1922
     35 O          63.9715   93.5164   -0.6170 O.2     1  UNL1       -0.2897
@<TRIPOS>BOND
     1    33    34    1
     2    34    35    2
     3    34    20    1
     4    20    21   ar
     5    21    22   ar
     6    22    23   ar
     7    23    24   ar
     8    24    25    1
     9    25    26    1
    10    26    27    1
    11    27    28   ar
    12    28    19    1
    13    19     1    1
    14     1     2    1
    15     2     3    1
    16     3     4    1
    17     4     5    1
    18     5     8    1
    19     8     9   ar
    20     9    10   ar
    21    10    11   ar
    22    11    12   ar
    23    12    13   ar
    24    13    14   ar
    25    14    15    1
    26    14    16   ar
    27    16    17   ar
    28    17    18   ar
    29     5     6    1
    30     6     7    1
    31    28    29   ar
    32    29    30   ar
    33    30    31   ar
    34    31    32   ar
    35    24    20   ar
    36    32    27   ar
    37    32    23    1
    38     7     2    1
    39    18     8   ar
    40    18    12   ar
@<TRIPOS>MOLECULE
*****
 35 40 0 0 0
SMALL
GASTEIGER

@<TRIPOS>ATOM
      1 C          59.0669   90.0591    6.5392 C.3     1  UNL1        0.0770
      2 N          59.7279   90.8085    5.4205 N.3     1  UNL1       -0.2695
      3 C          61.1414   90.4870    5.0347 C.3     1  UNL1        0.0938
      4 C          61.8024   91.2364    3.9161 C.3     1  UNL1        0.1081
      5 N          61.0500   92.3072    3.1831 N.pl3   1  UNL1       -0.3046
      6 C          59.6366   92.6287    3.5689 C.3     1  UNL1        0.1081
      7 C          58.9755   91.8793    4.6876 C.3     1  UNL1        0.0938
      8 C          61.7110   93.0566    2.0645 C.ar    1  UNL1        0.0493
      9 C          63.0345   93.7259    2.2892 C.ar    1  UNL1        0.0146
     10 C          63.6955   94.4753    1.1705 C.ar    1  UNL1        0.0028
     11 C          63.0331   94.5554   -0.1729 C.ar    1  UNL1        0.0192
     12 C          61.7096   93.8862   -0.3976 C.ar    1  UNL1        0.0821
     13 N          61.0472   93.9664   -1.7410 N.ar    1  UNL1       -0.2496
     14 C          59.7236   93.2972   -1.9657 C.ar    1  UNL1        0.0593
     15 C          59.0611   93.3774   -3.3091 C.3     1  UNL1        0.0521
     16 C          59.0626   92.5478   -0.8470 C.ar    1  UNL1        0.0148
     17 C          59.7251   92.4676    0.4964 C.ar    1  UNL1        0.0039
     18 C          61.0485   93.1368    0.7211 C.ar    1  UNL1        0.0310
     19 C          59.7551   88.8809    7.1623 C.3     1  UNL1        0.0468
     20 C          63.1270   84.4783   11.2809 C.ar    1  UNL1        0.1331
     21 N          63.3585   85.1202   12.6167 N.ar    1  UNL1       -0.2209
     22 C          62.7693   86.4990   12.5768 C.ar    1  UNL1        0.1828
     23 N          62.1736   86.7093   11.2163 N.ar    1  UNL1       -0.2851
     24 C          62.3947   85.4604   10.4154 C.ar    1  UNL1        0.1070
     25 C          61.9006   85.3789    9.0014 C.3     1  UNL1        0.2509
     26 O          61.1855   86.5462    8.3884 O.3     1  UNL1       -0.4678
     27 C          60.9644   87.7951    9.1893 C.ar    1  UNL1        0.1511
     28 C          60.2492   88.9625    8.5763 C.ar    1  UNL1        0.0146
     29 C          60.0281   90.2113    9.3771 C.ar    1  UNL1       -0.0011
     30 C          60.5222   90.2928   10.7910 C.ar    1  UNL1        0.0014
     31 C          61.2374   89.1255   11.4041 C.ar    1  UNL1        0.0206
     32 C          61.4585   87.8766   10.6032 C.ar    1  UNL1        0.0989
     33 C          62.9105   81.9001   11.5174 C.3     1  UNL1        0.0790
     34 C          63.5530   83.0968   10.8808 C.2     1  UNL1        0.1922
     35 O          64.6214   82.9120    9.8444 O.2     1  UNL1       -0.2897
@<TRIPOS>BOND
     1    33    34    1
     2    34    35    2
     3    34    20    1
     4    20    21   ar
     5    21    22   ar
     6    22    23   ar
     7    23    24   ar
     8    24    25    1
     9    25    26    1
    10    26    27    1
    11    27    28   ar
    12    28    19    1
    13    19     1    1
    14     1     2    1
    15     2     3    1
    16     3     4    1
    17     4     5    1
    18     5     8    1
    19     8     9   ar
    20     9    10   ar
    21    10    11   ar
    22    11    12   ar
    23    12    13   ar
    24    13    14   ar
    25    14    15    1
    26    14    16   ar
    27    16    17   ar
    28    17    18   ar
    29     5     6    1
    30     6     7    1
    31    28    29   ar
    32    29    30   ar
    33    30    31   ar
    34    31    32   ar
    35    24    20   ar
    36    32    27   ar
    37    32    23    1
    38     7     2    1
    39    18     8   ar
    40    18    12   ar
@<TRIPOS>MOLECULE
*****
 35 40 0 0 0
SMALL
GASTEIGER

@<TRIPOS>ATOM
      1 C          63.2549   88.3960   17.3804 C.3     1  UNL1        0.0770
      2 N          63.2989   87.2514   16.4120 N.3     1  UNL1       -0.2695
      3 C          64.2632   87.2775   15.2633 C.3     1  UNL1        0.0938
      4 C          64.3072   86.1329   14.2949 C.3     1  UNL1        0.1081
      5 N          63.3871   84.9621   14.4752 N.pl3   1  UNL1       -0.3046
      6 C          62.4229   84.9359   15.6239 C.3     1  UNL1        0.1081
      7 C          62.3788   86.0806   16.5924 C.3     1  UNL1        0.0938
      8 C          63.4311   83.8175   13.5068 C.ar    1  UNL1        0.0493
      9 C          63.6502   82.4202   14.0066 C.ar    1  UNL1        0.0146
     10 C          63.6942   81.2756   13.0382 C.ar    1  UNL1        0.0028
     11 C          63.5192   81.5281   11.5700 C.ar    1  UNL1        0.0192
     12 C          63.3001   82.9253   11.0702 C.ar    1  UNL1        0.0821
     13 N          63.1251   83.1778    9.6020 N.ar    1  UNL1       -0.2496
     14 C          62.9060   84.5751    9.1022 C.ar    1  UNL1        0.0593
     15 C          62.7309   84.8276    7.6340 C.3     1  UNL1        0.0521
     16 C          62.8619   85.7197   10.0706 C.ar    1  UNL1        0.0148
     17 C          63.0370   85.4672   11.5388 C.ar    1  UNL1        0.0039
     18 C          63.2561   84.0700   12.0386 C.ar    1  UNL1        0.0310
     19 C          62.8436   89.7601   16.9112 C.3     1  UNL1        0.0468
     20 C          61.7013   89.9445   10.1011 C.ar    1  UNL1        0.1331
     21 N          62.7704   90.7601    9.4363 N.ar    1  UNL1       -0.2209
     22 C          63.7107   91.2463   10.4991 C.ar    1  UNL1        0.1828
     23 N          63.2228   90.7311   11.8206 N.ar    1  UNL1       -0.2851
     24 C          61.9810   89.9266   11.5746 C.ar    1  UNL1        0.1070
     25 C          61.2652   89.2815   12.7243 C.3     1  UNL1        0.2509
     26 O          61.7914   89.4410   14.1199 O.3     1  UNL1       -0.4678
     27 C          63.0333   90.2456   14.3659 C.ar    1  UNL1        0.1511
     28 C          63.5594   90.4051   15.7615 C.ar    1  UNL1        0.0146
     29 C          64.8012   91.2096   16.0075 C.ar    1  UNL1       -0.0011
     30 C          65.5169   91.8546   14.8578 C.ar    1  UNL1        0.0014
     31 C          64.9908   91.6951   13.4622 C.ar    1  UNL1        0.0206
     32 C          63.7490   90.8906   13.2162 C.ar    1  UNL1        0.0989
     33 C          59.9709   88.0098    9.9893 C.3     1  UNL1        0.0790
     34 C          60.5541   89.2660    9.4131 C.2     1  UNL1        0.1922
     35 O          59.9899   89.8435    8.1489 O.2     1  UNL1       -0.2897
@<TRIPOS>BOND
     1    33    34    1
     2    34    35    2
     3    34    20    1
     4    20    21   ar
     5    21    22   ar
     6    22    23   ar
     7    23    24   ar
     8    24    25    1
     9    25    26    1
    10    26    27    1
    11    27    28   ar
    12    28    19    1
    13    19     1    1
    14     1     2    1
    15     2     3    1
    16     3     4    1
    17     4     5    1
    18     5     8    1
    19     8     9   ar
    20     9    10   ar
    21    10    11   ar
    22    11    12   ar
    23    12    13   ar
    24    13    14   ar
    25    14    15    1
    26    14    16   ar
    27    16    17   ar
    28    17    18   ar
    29     5     6    1
    30     6     7    1
    31    28    29   ar
    32    29    30   ar
    33    30    31   ar
    34    31    32   ar
    35    24    20   ar
    36    32    27   ar
    37    32    23    1
    38     7     2    1
    39    18     8   ar
    40    18    12   ar
