@<TRIPOS>MOLECULE
*****
 33 36 0 0 0
SMALL
GASTEIGER

@<TRIPOS>ATOM
      1 N          64.0338   90.5453   14.2617 N.am    1  UNL1       -0.2723
      2 C          65.2283   91.4387   14.1039 C.2     1  UNL1        0.2685
      3 O          66.0167   91.8568   15.3095 O.2     1  UNL1       -0.2682
      4 N          60.8188   88.8402    9.3456 N.3     1  UNL1       -0.2704
      5 C          60.5694   90.0596   10.1828 C.3     1  UNL1        0.0722
      6 C          61.5915   90.0854   11.2803 C.3     1  UNL1        0.0190
      7 C          62.0691   90.8550   12.4760 C.3     1  UNL1        0.0213
      8 C          63.2453   90.1271   13.0561 C.3     1  UNL1        0.0761
      9 C          63.4948   88.9077   12.2191 C.3     1  UNL1        0.0213
     10 C          62.4726   88.8819   11.1215 C.3     1  UNL1        0.0190
     11 C          61.9950   88.1124    9.9258 C.3     1  UNL1        0.0722
     12 C          60.0303   88.4221    8.1400 C.3     1  UNL1        0.1077
     13 C          60.6128   85.9417    7.6319 C.3     1  UNL1        0.0396
     14 C          59.6022   86.9932    7.9825 C.3     1  UNL1        0.1769
     15 F          58.1633   86.6158    8.1755 F       1  UNL1       -0.2358
     16 C          65.6344   91.9140   12.7403 C.ar    1  UNL1        0.1535
     17 C          67.0252   91.8972   12.1788 C.ar    1  UNL1        0.1012
     18 N          66.9713   92.4624   10.7903 N.ar    1  UNL1       -0.3057
     19 C          68.1369   92.6317    9.8615 C.3     1  UNL1        0.1321
     20 C          65.5472   92.8284   10.4938 C.ar    1  UNL1        0.1787
     21 N          64.7210   92.4895   11.6990 N.ar    1  UNL1       -0.2192
     22 C          63.6277   90.0700   15.6252 C.3     1  UNL1        0.1205
     23 C          63.5916   88.6012   15.9276 C.ar    1  UNL1        0.0007
     24 C          62.9079   88.1075   17.1681 C.ar    1  UNL1       -0.0024
     25 C          62.8717   86.6387   17.4705 C.ar    1  UNL1        0.0028
     26 C          63.5193   85.6637   16.5323 C.ar    1  UNL1        0.0372
     27 C          64.2029   86.1575   15.2919 C.ar    1  UNL1        0.1465
     28 C          64.2391   87.6262   14.9895 C.ar    1  UNL1        0.0346
     29 O          64.8504   85.1825   14.3538 O.3     1  UNL1       -0.4045
     30 C          64.0049   84.2324   13.5584 C.3     1  UNL1        0.5753
     31 F          63.1595   83.2824   12.7630 F       1  UNL1       -0.1328
     32 F          64.4076   83.1111   14.4697 F       1  UNL1       -0.1328
     33 F          63.6022   85.3538   12.6471 F       1  UNL1       -0.1328
@<TRIPOS>BOND
     1    13    14    1
     2    14    15    1
     3    14    12    1
     4    12     4    1
     5     4     5    1
     6     6     5    1
     7     6     7    1
     8     7     8    1
     9     8     1    1
    10     1    22    1
    11    22    23    1
    12    23    24   ar
    13    24    25   ar
    14    25    26   ar
    15    26    27   ar
    16    27    29    1
    17    29    30    1
    18    30    31    1
    19    30    32    1
    20    30    33    1
    21    27    28   ar
    22     1     2   am
    23     2     3    2
    24     2    16    1
    25    16    17   ar
    26    17    18   ar
    27    18    19    1
    28    18    20   ar
    29    20    21   ar
    30     8     9    1
    31    10     9    1
    32    10    11    1
    33    11     4    1
    34    10     6    1
    35    28    23   ar
    36    21    16   ar
@<TRIPOS>MOLECULE
*****
 33 36 0 0 0
SMALL
GASTEIGER

@<TRIPOS>ATOM
      1 N          64.1662   84.6057   14.1197 N.am    1  UNL1       -0.2723
      2 C          64.0580   83.2355   14.7202 C.2     1  UNL1        0.2685
      3 O          64.7692   82.9204   16.0028 O.2     1  UNL1       -0.2682
      4 N          61.2663   85.8906    8.8899 N.3     1  UNL1       -0.2704
      5 C          60.8809   86.3790   10.2547 C.3     1  UNL1        0.0722
      6 C          61.8641   85.8220   11.2412 C.3     1  UNL1        0.0190
      7 C          62.2336   85.7796   12.6943 C.3     1  UNL1        0.0213
      8 C          63.4550   84.9208   12.8372 C.3     1  UNL1        0.0761
      9 C          63.8404   84.4324   11.4724 C.3     1  UNL1        0.0213
     10 C          62.8572   84.9893   10.4859 C.3     1  UNL1        0.0190
     11 C          62.4877   85.0317    9.0328 C.3     1  UNL1        0.0722
     12 C          60.5551   86.2057    7.6073 C.3     1  UNL1        0.1077
     13 C          59.4367   88.5416    7.4014 C.3     1  UNL1        0.0396
     14 C          59.3240   87.0624    7.6233 C.3     1  UNL1        0.1769
     15 F          57.9801   86.4399    7.8612 F       1  UNL1       -0.2358
     16 C          63.2386   82.1802   14.0381 C.ar    1  UNL1        0.1535
     17 C          63.7090   81.2696   12.9429 C.ar    1  UNL1        0.1012
     18 N          62.5660   80.3770   12.5595 N.ar    1  UNL1       -0.3057
     19 C          62.5947   79.3123   11.5032 C.3     1  UNL1        0.1321
     20 C          61.3894   80.7359   13.4178 C.ar    1  UNL1        0.1787
     21 N          61.8051   81.8504   14.3316 N.ar    1  UNL1       -0.2192
     22 C          64.9855   85.6609   14.8018 C.3     1  UNL1        0.1205
     23 C          64.3200   86.8853   15.3565 C.ar    1  UNL1        0.0007
     24 C          63.5510   86.8038   16.6419 C.ar    1  UNL1       -0.0024
     25 C          62.8854   88.0282   17.1966 C.ar    1  UNL1        0.0028
     26 C          62.9888   89.3342   16.4660 C.ar    1  UNL1        0.0372
     27 C          63.7578   89.4157   15.1807 C.ar    1  UNL1        0.1465
     28 C          64.4234   88.1913   14.6259 C.ar    1  UNL1        0.0346
     29 O          63.8612   90.7217   14.4501 O.3     1  UNL1       -0.4045
     30 C          65.1831   91.1725   13.9031 C.3     1  UNL1        0.5753
     31 F          66.5051   91.6232   13.3561 F       1  UNL1       -0.1328
     32 F          64.6178   91.1446   12.5140 F       1  UNL1       -0.1328
     33 F          65.7484   91.2003   15.2922 F       1  UNL1       -0.1328
@<TRIPOS>BOND
     1    13    14    1
     2    14    15    1
     3    14    12    1
     4    12     4    1
     5     4     5    1
     6     6     5    1
     7     6     7    1
     8     7     8    1
     9     8     1    1
    10     1    22    1
    11    22    23    1
    12    23    24   ar
    13    24    25   ar
    14    25    26   ar
    15    26    27   ar
    16    27    29    1
    17    29    30    1
    18    30    31    1
    19    30    32    1
    20    30    33    1
    21    27    28   ar
    22     1     2   am
    23     2     3    2
    24     2    16    1
    25    16    17   ar
    26    17    18   ar
    27    18    19    1
    28    18    20   ar
    29    20    21   ar
    30     8     9    1
    31    10     9    1
    32    10    11    1
    33    11     4    1
    34    10     6    1
    35    28    23   ar
    36    21    16   ar
@<TRIPOS>MOLECULE
*****
 33 36 0 0 0
SMALL
GASTEIGER

@<TRIPOS>ATOM
      1 N          62.6360   89.0491   12.3214 N.am    1  UNL1       -0.2723
      2 C          61.9759   89.5241   11.0610 C.2     1  UNL1        0.2685
      3 O          61.7450   90.9900   10.8418 O.2     1  UNL1       -0.2682
      4 N          63.5775   83.0719   13.2151 N.3     1  UNL1       -0.2704
      5 C          62.6372   83.6765   12.2149 C.3     1  UNL1        0.0722
      6 C          62.7249   85.1688   12.3393 C.3     1  UNL1        0.0190
      7 C          62.1980   86.4647   11.7981 C.3     1  UNL1        0.0213
      8 C          62.8669   87.5832   12.5405 C.3     1  UNL1        0.0761
      9 C          63.8072   86.9787   13.5406 C.3     1  UNL1        0.0213
     10 C          63.7195   85.4865   13.4163 C.3     1  UNL1        0.0190
     11 C          64.2464   84.1905   13.9575 C.3     1  UNL1        0.0722
     12 C          63.8084   81.6061   13.4342 C.3     1  UNL1        0.1077
     13 C          61.4576   80.7345   14.1155 C.3     1  UNL1        0.0396
     14 C          62.6806   80.6338   13.2529 C.3     1  UNL1        0.1769
     15 F          62.7759   79.5609   12.2090 F       1  UNL1       -0.2358
     16 C          61.5467   88.5333   10.0197 C.ar    1  UNL1        0.1535
     17 C          60.1529   88.3536    9.4952 C.ar    1  UNL1        0.1012
     18 N          60.1808   87.2575    8.4715 N.ar    1  UNL1       -0.3057
     19 C          59.0042   86.7484    7.6926 C.3     1  UNL1        0.1321
     20 C          61.5917   86.7600    8.3634 C.ar    1  UNL1        0.1787
     21 N          62.4358   87.5485    9.3202 N.ar    1  UNL1       -0.2192
     22 C          63.0652   90.0398   13.3625 C.3     1  UNL1        0.1205
     23 C          64.3310   90.8227   13.1763 C.ar    1  UNL1        0.0007
     24 C          64.5455   91.6140   11.9200 C.ar    1  UNL1       -0.0024
     25 C          65.8114   92.3969   11.7337 C.ar    1  UNL1        0.0028
     26 C          66.8627   92.3885   12.8037 C.ar    1  UNL1        0.0372
     27 C          66.6482   91.5973   14.0598 C.ar    1  UNL1        0.1465
     28 C          65.3824   90.8144   14.2461 C.ar    1  UNL1        0.0346
     29 O          67.6995   91.5890   15.1296 O.3     1  UNL1       -0.4045
     30 C          68.2540   92.8835   15.6464 C.3     1  UNL1        0.5753
     31 F          68.8085   94.1779   16.1631 F       1  UNL1       -0.1328
     32 F          69.4770   92.6983   14.7979 F       1  UNL1       -0.1328
     33 F          67.0310   93.0686   16.4949 F       1  UNL1       -0.1328
@<TRIPOS>BOND
     1    13    14    1
     2    14    15    1
     3    14    12    1
     4    12     4    1
     5     4     5    1
     6     6     5    1
     7     6     7    1
     8     7     8    1
     9     8     1    1
    10     1    22    1
    11    22    23    1
    12    23    24   ar
    13    24    25   ar
    14    25    26   ar
    15    26    27   ar
    16    27    29    1
    17    29    30    1
    18    30    31    1
    19    30    32    1
    20    30    33    1
    21    27    28   ar
    22     1     2   am
    23     2     3    2
    24     2    16    1
    25    16    17   ar
    26    17    18   ar
    27    18    19    1
    28    18    20   ar
    29    20    21   ar
    30     8     9    1
    31    10     9    1
    32    10    11    1
    33    11     4    1
    34    10     6    1
    35    28    23   ar
    36    21    16   ar
@<TRIPOS>MOLECULE
*****
 33 36 0 0 0
SMALL
GASTEIGER

@<TRIPOS>ATOM
      1 N          62.6718   89.1054   12.3034 N.am    1  UNL1       -0.2723
      2 C          62.0092   89.5678   11.0396 C.2     1  UNL1        0.2685
      3 O          61.7862   91.0319   10.8020 O.2     1  UNL1       -0.2682
      4 N          63.5811   83.1350   13.2723 N.3     1  UNL1       -0.2704
      5 C          62.6539   83.7320   12.2555 C.3     1  UNL1        0.0722
      6 C          62.7459   85.2252   12.3645 C.3     1  UNL1        0.0190
      7 C          62.2298   86.5171   11.8035 C.3     1  UNL1        0.0213
      8 C          62.8948   87.6412   12.5410 C.3     1  UNL1        0.0761
      9 C          63.8220   87.0443   13.5578 C.3     1  UNL1        0.0213
     10 C          63.7300   85.5511   13.4487 C.3     1  UNL1        0.0190
     11 C          64.2461   84.2592   14.0097 C.3     1  UNL1        0.0722
     12 C          63.8041   81.6708   13.5099 C.3     1  UNL1        0.1077
     13 C          61.4477   80.7695   14.1300 C.3     1  UNL1        0.0396
     14 C          62.6861   80.6960   13.2869 C.3     1  UNL1        0.1769
     15 F          62.8065   79.6476   12.2208 F       1  UNL1       -0.2358
     16 C          61.5695   88.5659   10.0134 C.ar    1  UNL1        0.1535
     17 C          60.1723   88.3871    9.4979 C.ar    1  UNL1        0.1012
     18 N          60.1892   87.2776    8.4884 N.ar    1  UNL1       -0.3057
     19 C          59.0061   86.7650    7.7219 C.3     1  UNL1        0.1321
     20 C          61.5968   86.7709    8.3801 C.ar    1  UNL1        0.1787
     21 N          62.4499   87.5671    9.3226 N.ar    1  UNL1       -0.2192
     22 C          63.1114   90.1072   13.3295 C.3     1  UNL1        0.1205
     23 C          64.3991   90.8541   13.1450 C.ar    1  UNL1        0.0007
     24 C          65.4309   90.8505   14.2339 C.ar    1  UNL1       -0.0024
     25 C          66.7185   91.5974   14.0494 C.ar    1  UNL1        0.0028
     26 C          66.9745   92.3479   12.7760 C.ar    1  UNL1        0.0372
     27 C          65.9428   92.3514   11.6872 C.ar    1  UNL1        0.1465
     28 C          64.6551   91.6045   11.8718 C.ar    1  UNL1        0.0346
     29 O          66.1987   93.1018   10.4140 O.3     1  UNL1       -0.4045
     30 C          67.5920   93.1968    9.8665 C.3     1  UNL1        0.5753
     31 F          68.9853   93.2917    9.3190 F       1  UNL1       -0.1328
     32 F          67.6297   91.7061    9.7038 F       1  UNL1       -0.1328
     33 F          67.5543   94.6875   10.0291 F       1  UNL1       -0.1328
@<TRIPOS>BOND
     1    13    14    1
     2    14    15    1
     3    14    12    1
     4    12     4    1
     5     4     5    1
     6     6     5    1
     7     6     7    1
     8     7     8    1
     9     8     1    1
    10     1    22    1
    11    22    23    1
    12    23    24   ar
    13    24    25   ar
    14    25    26   ar
    15    26    27   ar
    16    27    29    1
    17    29    30    1
    18    30    31    1
    19    30    32    1
    20    30    33    1
    21    27    28   ar
    22     1     2   am
    23     2     3    2
    24     2    16    1
    25    16    17   ar
    26    17    18   ar
    27    18    19    1
    28    18    20   ar
    29    20    21   ar
    30     8     9    1
    31    10     9    1
    32    10    11    1
    33    11     4    1
    34    10     6    1
    35    28    23   ar
    36    21    16   ar
@<TRIPOS>MOLECULE
*****
 33 36 0 0 0
SMALL
GASTEIGER

@<TRIPOS>ATOM
      1 N          64.1876   84.5064   14.1515 N.am    1  UNL1       -0.2723
      2 C          63.9504   83.2153   14.8772 C.2     1  UNL1        0.2685
      3 O          64.5279   83.0072   16.2459 O.2     1  UNL1       -0.2682
      4 N          61.8330   85.3548    8.5704 N.3     1  UNL1       -0.2704
      5 C          63.0199   84.5013    8.9063 C.3     1  UNL1        0.0722
      6 C          63.2454   84.5827   10.3870 C.3     1  UNL1        0.0190
      7 C          64.1182   84.1055   11.5097 C.3     1  UNL1        0.0213
      8 C          63.6101   84.7145   12.7828 C.3     1  UNL1        0.0761
      9 C          62.4233   85.5680   12.4470 C.3     1  UNL1        0.0213
     10 C          62.1978   85.4866   10.9663 C.3     1  UNL1        0.0190
     11 C          61.3250   85.9638    9.8436 C.3     1  UNL1        0.0722
     12 C          61.2556   85.5629    7.2017 C.3     1  UNL1        0.1077
     13 C          62.7678   84.6548    5.2943 C.3     1  UNL1        0.0396
     14 C          61.5172   84.5604    6.1171 C.3     1  UNL1        0.1769
     15 F          60.5280   83.4635    5.8551 F       1  UNL1       -0.2358
     16 C          63.1359   82.1321   14.2342 C.ar    1  UNL1        0.1535
     17 C          63.6282   81.1434   13.2192 C.ar    1  UNL1        0.1012
     18 N          62.4825   80.2478   12.8511 N.ar    1  UNL1       -0.3057
     19 C          62.5290   79.1157   11.8681 C.3     1  UNL1        0.1321
     20 C          61.2824   80.6830   13.6385 C.ar    1  UNL1        0.1787
     21 N          61.6862   81.8476   14.4933 N.ar    1  UNL1       -0.2192
     22 C          65.0021   85.5895   14.7944 C.3     1  UNL1        0.1205
     23 C          64.3249   86.8054   15.3538 C.ar    1  UNL1        0.0007
     24 C          63.5333   86.7054   16.6241 C.ar    1  UNL1       -0.0024
     25 C          62.8561   87.9213   17.1835 C.ar    1  UNL1        0.0028
     26 C          62.9704   89.2372   16.4726 C.ar    1  UNL1        0.0372
     27 C          63.7620   89.3372   15.2025 C.ar    1  UNL1        0.1465
     28 C          64.4392   88.1213   14.6431 C.ar    1  UNL1        0.0346
     29 O          63.8763   90.6531   14.4917 O.3     1  UNL1       -0.4045
     30 C          63.6597   90.7261   13.0092 C.3     1  UNL1        0.5753
     31 F          63.4432   90.7991   11.5267 F       1  UNL1       -0.1328
     32 F          64.9840   91.4123   12.8495 F       1  UNL1       -0.1328
     33 F          62.3355   90.0399   13.1688 F       1  UNL1       -0.1328
@<TRIPOS>BOND
     1    13    14    1
     2    14    15    1
     3    14    12    1
     4    12     4    1
     5     4     5    1
     6     6     5    1
     7     6     7    1
     8     7     8    1
     9     8     1    1
    10     1    22    1
    11    22    23    1
    12    23    24   ar
    13    24    25   ar
    14    25    26   ar
    15    26    27   ar
    16    27    29    1
    17    29    30    1
    18    30    31    1
    19    30    32    1
    20    30    33    1
    21    27    28   ar
    22     1     2   am
    23     2     3    2
    24     2    16    1
    25    16    17   ar
    26    17    18   ar
    27    18    19    1
    28    18    20   ar
    29    20    21   ar
    30     8     9    1
    31    10     9    1
    32    10    11    1
    33    11     4    1
    34    10     6    1
    35    28    23   ar
    36    21    16   ar
@<TRIPOS>MOLECULE
*****
 33 36 0 0 0
SMALL
GASTEIGER

@<TRIPOS>ATOM
      1 N          62.0690   87.3148   10.5504 N.am    1  UNL1       -0.2723
      2 C          60.5920   87.4733   10.3425 C.2     1  UNL1        0.2685
      3 O          59.8654   86.5618    9.3984 O.2     1  UNL1       -0.2682
      4 N          65.0319   91.0317   14.3997 N.3     1  UNL1       -0.2704
      5 C          64.4734   91.4127   13.0607 C.3     1  UNL1        0.0722
      6 C          63.8325   90.1956   12.4624 C.3     1  UNL1        0.0190
      7 C          63.0913   89.6789   11.2651 C.3     1  UNL1        0.0213
      8 C          62.7956   88.2264   11.4944 C.3     1  UNL1        0.0761
      9 C          63.3540   87.8453   12.8333 C.3     1  UNL1        0.0213
     10 C          63.9949   89.0624   13.4316 C.3     1  UNL1        0.0190
     11 C          64.7361   89.5792   14.6290 C.3     1  UNL1        0.0722
     12 C          65.7585   91.9433   15.3437 C.3     1  UNL1        0.1077
     13 C          67.9964   91.9585   14.0240 C.3     1  UNL1        0.0396
     14 C          67.2574   91.9981   15.3288 C.3     1  UNL1        0.1769
     15 F          68.0174   92.0926   16.6186 F       1  UNL1       -0.2358
     16 C          59.8415   88.5434   11.0786 C.ar    1  UNL1        0.1535
     17 C          59.6725   89.9662   10.6346 C.ar    1  UNL1        0.1012
     18 N          58.8548   90.6806   11.6696 N.ar    1  UNL1       -0.3057
     19 C          58.4454   92.1231   11.6282 C.3     1  UNL1        0.1321
     20 C          58.5185   89.6994   12.7530 C.ar    1  UNL1        0.1787
     21 N          59.1283   88.3785   12.3878 N.ar    1  UNL1       -0.2192
     22 C          62.8194   86.2448    9.8143 C.3     1  UNL1        0.1205
     23 C          63.0439   84.9084   10.4574 C.ar    1  UNL1        0.0007
     24 C          63.7118   83.8081    9.6872 C.ar    1  UNL1       -0.0024
     25 C          63.9363   82.4717   10.3304 C.ar    1  UNL1        0.0028
     26 C          63.4929   82.2357   11.7438 C.ar    1  UNL1        0.0372
     27 C          62.8250   83.3360   12.5140 C.ar    1  UNL1        0.1465
     28 C          62.6005   84.6723   11.8708 C.ar    1  UNL1        0.0346
     29 O          62.3817   83.0999   13.9274 O.3     1  UNL1       -0.4045
     30 C          62.9069   83.9670   15.0329 C.3     1  UNL1        0.5753
     31 F          63.4321   84.8342   16.1385 F       1  UNL1       -0.1328
     32 F          61.5301   84.5202   15.2531 F       1  UNL1       -0.1328
     33 F          64.2837   83.4139   14.8127 F       1  UNL1       -0.1328
@<TRIPOS>BOND
     1    13    14    1
     2    14    15    1
     3    14    12    1
     4    12     4    1
     5     4     5    1
     6     6     5    1
     7     6     7    1
     8     7     8    1
     9     8     1    1
    10     1    22    1
    11    22    23    1
    12    23    24   ar
    13    24    25   ar
    14    25    26   ar
    15    26    27   ar
    16    27    29    1
    17    29    30    1
    18    30    31    1
    19    30    32    1
    20    30    33    1
    21    27    28   ar
    22     1     2   am
    23     2     3    2
    24     2    16    1
    25    16    17   ar
    26    17    18   ar
    27    18    19    1
    28    18    20   ar
    29    20    21   ar
    30     8     9    1
    31    10     9    1
    32    10    11    1
    33    11     4    1
    34    10     6    1
    35    28    23   ar
    36    21    16   ar
@<TRIPOS>MOLECULE
*****
 33 36 0 0 0
SMALL
GASTEIGER

@<TRIPOS>ATOM
      1 N          62.5294   86.4723   11.2135 N.am    1  UNL1       -0.2723
      2 C          61.3581   86.7367   10.3146 C.2     1  UNL1        0.2685
      3 O          60.8163   85.6400    9.4465 O.2     1  UNL1       -0.2682
      4 N          64.7386   90.9443   14.7536 N.3     1  UNL1       -0.2704
      5 C          64.7126   89.4832   15.0921 C.3     1  UNL1        0.0722
      6 C          64.0856   88.7520   13.9422 C.3     1  UNL1        0.0190
      7 C          63.6821   87.3972   13.4408 C.3     1  UNL1        0.0213
      8 C          63.0712   87.5690   12.0817 C.3     1  UNL1        0.0761
      9 C          63.0971   89.0300   11.7431 C.3     1  UNL1        0.0213
     10 C          63.7241   89.7612   12.8930 C.3     1  UNL1        0.0190
     11 C          64.1277   91.1161   13.3945 C.3     1  UNL1        0.0722
     12 C          65.2804   92.0410   15.6218 C.3     1  UNL1        0.1077
     13 C          67.7631   92.7401   15.9338 C.3     1  UNL1        0.0396
     14 C          66.4733   92.8323   15.1736 C.3     1  UNL1        0.1769
     15 F          66.3764   93.7158   13.9652 F       1  UNL1       -0.2358
     16 C          60.7285   88.0979   10.2839 C.ar    1  UNL1        0.1535
     17 C          59.9428   88.7312   11.3937 C.ar    1  UNL1        0.1012
     18 N          59.5028   90.0895   10.9335 N.ar    1  UNL1       -0.3057
     19 C          58.6915   91.0695   11.7281 C.3     1  UNL1        0.1321
     20 C          60.0166   90.2955    9.5395 C.ar    1  UNL1        0.1787
     21 N          60.7741   89.0647    9.1380 N.ar    1  UNL1       -0.2192
     22 C          63.1589   85.1112   11.2443 C.3     1  UNL1        0.1205
     23 C          62.8216   84.1536   12.3485 C.ar    1  UNL1        0.0007
     24 C          62.5709   82.7078   12.0369 C.ar    1  UNL1       -0.0024
     25 C          62.2336   81.7502   13.1411 C.ar    1  UNL1        0.0028
     26 C          62.1470   82.2384   14.5569 C.ar    1  UNL1        0.0372
     27 C          62.3977   83.6841   14.8684 C.ar    1  UNL1        0.1465
     28 C          62.7350   84.6417   13.7642 C.ar    1  UNL1        0.0346
     29 O          62.3111   84.1722   16.2840 O.3     1  UNL1       -0.4045
     30 C          62.8172   85.5391   16.6384 C.3     1  UNL1        0.5753
     31 F          63.3234   86.9059   16.9928 F       1  UNL1       -0.1328
     32 F          64.2127   85.1124   16.2910 F       1  UNL1       -0.1328
     33 F          61.4218   85.9658   16.9858 F       1  UNL1       -0.1328
@<TRIPOS>BOND
     1    13    14    1
     2    14    15    1
     3    14    12    1
     4    12     4    1
     5     4     5    1
     6     6     5    1
     7     6     7    1
     8     7     8    1
     9     8     1    1
    10     1    22    1
    11    22    23    1
    12    23    24   ar
    13    24    25   ar
    14    25    26   ar
    15    26    27   ar
    16    27    29    1
    17    29    30    1
    18    30    31    1
    19    30    32    1
    20    30    33    1
    21    27    28   ar
    22     1     2   am
    23     2     3    2
    24     2    16    1
    25    16    17   ar
    26    17    18   ar
    27    18    19    1
    28    18    20   ar
    29    20    21   ar
    30     8     9    1
    31    10     9    1
    32    10    11    1
    33    11     4    1
    34    10     6    1
    35    28    23   ar
    36    21    16   ar
@<TRIPOS>MOLECULE
*****
 33 36 0 0 0
SMALL
GASTEIGER

@<TRIPOS>ATOM
      1 N          63.8616   89.4780   13.5334 N.am    1  UNL1       -0.2723
      2 C          62.8954   90.1953   12.6379 C.2     1  UNL1        0.2685
      3 O          62.9183   91.6929   12.5566 O.2     1  UNL1       -0.2682
      4 N          63.7682   83.3712   13.8651 N.3     1  UNL1       -0.2704
      5 C          64.3497   84.3010   14.8884 C.3     1  UNL1        0.0722
      6 C          64.1545   85.7064   14.4019 C.3     1  UNL1        0.0190
      7 C          64.3933   87.1497   14.7337 C.3     1  UNL1        0.0213
      8 C          63.8387   87.9804   13.6147 C.3     1  UNL1        0.0761
      9 C          63.2571   87.0507   12.5914 C.3     1  UNL1        0.0213
     10 C          63.4523   85.6453   13.0779 C.3     1  UNL1        0.0190
     11 C          63.2136   84.2020   12.7461 C.3     1  UNL1        0.0722
     12 C          63.7452   81.8736   13.9464 C.3     1  UNL1        0.1077
     13 C          62.3811   79.9415   12.8711 C.3     1  UNL1        0.0396
     14 C          62.4515   81.1331   13.7795 C.3     1  UNL1        0.1769
     15 F          61.2281   81.5842   14.5210 F       1  UNL1       -0.2358
     16 C          61.9063   89.4150   11.8237 C.ar    1  UNL1        0.1535
     17 C          62.1434   88.8469   10.4559 C.ar    1  UNL1        0.1012
     18 N          60.8900   88.1467   10.0213 N.ar    1  UNL1       -0.3057
     19 C          60.6844   87.4358    8.7165 C.3     1  UNL1        0.1321
     20 C          59.8784   88.2821   11.1205 C.ar    1  UNL1        0.1787
     21 N          60.5065   89.0660   12.2345 N.ar    1  UNL1       -0.2192
     22 C          64.8506   90.2583   14.3475 C.3     1  UNL1        0.1205
     23 C          65.5142   91.4696   13.7623 C.ar    1  UNL1        0.0007
     24 C          65.9233   92.6047   14.6535 C.ar    1  UNL1       -0.0024
     25 C          66.5869   93.8160   14.0683 C.ar    1  UNL1        0.0028
     26 C          66.8413   93.8921   12.5919 C.ar    1  UNL1        0.0372
     27 C          66.4321   92.7570   11.7009 C.ar    1  UNL1        0.1465
     28 C          65.7686   91.5457   12.2861 C.ar    1  UNL1        0.0346
     29 O          66.6866   92.8332   10.2246 O.3     1  UNL1       -0.4045
     30 C          68.0827   92.6883    9.6957 C.3     1  UNL1        0.5753
     31 F          69.4789   92.5435    9.1667 F       1  UNL1       -0.1328
     32 F          68.3693   91.6475   10.7371 F       1  UNL1       -0.1328
     33 F          67.7961   93.7291    8.6542 F       1  UNL1       -0.1328
@<TRIPOS>BOND
     1    13    14    1
     2    14    15    1
     3    14    12    1
     4    12     4    1
     5     4     5    1
     6     6     5    1
     7     6     7    1
     8     7     8    1
     9     8     1    1
    10     1    22    1
    11    22    23    1
    12    23    24   ar
    13    24    25   ar
    14    25    26   ar
    15    26    27   ar
    16    27    29    1
    17    29    30    1
    18    30    31    1
    19    30    32    1
    20    30    33    1
    21    27    28   ar
    22     1     2   am
    23     2     3    2
    24     2    16    1
    25    16    17   ar
    26    17    18   ar
    27    18    19    1
    28    18    20   ar
    29    20    21   ar
    30     8     9    1
    31    10     9    1
    32    10    11    1
    33    11     4    1
    34    10     6    1
    35    28    23   ar
    36    21    16   ar
@<TRIPOS>MOLECULE
*****
 33 36 0 0 0
SMALL
GASTEIGER

@<TRIPOS>ATOM
      1 N          63.7305   89.5092   12.5074 N.am    1  UNL1       -0.2723
      2 C          62.6763   90.1261   11.6368 C.2     1  UNL1        0.2685
      3 O          62.7852   91.5668   11.2336 O.2     1  UNL1       -0.2682
      4 N          63.2865   83.6346   14.1515 N.3     1  UNL1       -0.2704
      5 C          62.7750   84.2340   12.8752 C.3     1  UNL1        0.0722
      6 C          63.0984   85.6987   12.8887 C.3     1  UNL1        0.0190
      7 C          62.9822   86.9744   12.1082 C.3     1  UNL1        0.0213
      8 C          63.6216   88.0685   12.9106 C.3     1  UNL1        0.0761
      9 C          64.1331   87.4691   14.1869 C.3     1  UNL1        0.0213
     10 C          63.8097   86.0045   14.1734 C.3     1  UNL1        0.0190
     11 C          63.9260   84.7288   14.9538 C.3     1  UNL1        0.0722
     12 C          63.1776   82.1939   14.5547 C.3     1  UNL1        0.1077
     13 C          62.7500   80.5871   12.5584 C.3     1  UNL1        0.0396
     14 C          62.2652   81.2713   13.8021 C.3     1  UNL1        0.1769
     15 F          60.8680   81.0330   14.2932 F       1  UNL1       -0.2358
     16 C          61.5131   89.3023   11.1693 C.ar    1  UNL1        0.1535
     17 C          61.3747   88.6566    9.8225 C.ar    1  UNL1        0.1012
     18 N          60.0601   87.9349    9.7875 N.ar    1  UNL1       -0.3057
     19 C          59.5152   87.1511    8.6304 C.3     1  UNL1        0.1321
     20 C          59.3863   88.1345   11.1126 C.ar    1  UNL1        0.1787
     21 N          60.2843   88.9797   11.9666 N.ar    1  UNL1       -0.2192
     22 C          64.8936   90.3330   12.9748 C.3     1  UNL1        0.1205
     23 C          64.8662   90.9660   14.3344 C.ar    1  UNL1        0.0007
     24 C          63.6924   90.7437   15.2416 C.ar    1  UNL1       -0.0024
     25 C          63.6649   91.3768   16.6012 C.ar    1  UNL1        0.0028
     26 C          64.8112   92.2321   17.0536 C.ar    1  UNL1        0.0372
     27 C          65.9849   92.4543   16.1464 C.ar    1  UNL1        0.1465
     28 C          66.0123   91.8213   14.7868 C.ar    1  UNL1        0.0346
     29 O          67.1311   93.3096   16.5988 O.3     1  UNL1       -0.4045
     30 C          68.4134   93.3181   15.8206 C.3     1  UNL1        0.5753
     31 F          69.6957   93.3266   15.0424 F       1  UNL1       -0.1328
     32 F          67.8935   94.4436   14.9762 F       1  UNL1       -0.1328
     33 F          68.9333   92.1926   16.6649 F       1  UNL1       -0.1328
@<TRIPOS>BOND
     1    13    14    1
     2    14    15    1
     3    14    12    1
     4    12     4    1
     5     4     5    1
     6     6     5    1
     7     6     7    1
     8     7     8    1
     9     8     1    1
    10     1    22    1
    11    22    23    1
    12    23    24   ar
    13    24    25   ar
    14    25    26   ar
    15    26    27   ar
    16    27    29    1
    17    29    30    1
    18    30    31    1
    19    30    32    1
    20    30    33    1
    21    27    28   ar
    22     1     2   am
    23     2     3    2
    24     2    16    1
    25    16    17   ar
    26    17    18   ar
    27    18    19    1
    28    18    20   ar
    29    20    21   ar
    30     8     9    1
    31    10     9    1
    32    10    11    1
    33    11     4    1
    34    10     6    1
    35    28    23   ar
    36    21    16   ar
