@<TRIPOS>MOLECULE
*****
 56 61 0 0 0
SMALL
GASTEIGER

@<TRIPOS>ATOM
      1 C          62.7282   86.5459   12.0654 C.3     1  UNL1        0.1269
      2 O          61.5755   85.5879   12.0080 O.3     1  UNL1       -0.3830
      3 H          60.8280   86.0081   11.5545 H       1  UNL1        0.2104
      4 C          64.0133   86.1348   12.7207 C.3     1  UNL1        0.0401
      5 C          64.1120   86.0920   14.2168 C.3     1  UNL1        0.0833
      6 O          63.7528   87.3381   16.4681 O.2     1  UNL1       -0.2751
      7 C          64.0896   87.3670   15.0068 C.2     1  UNL1        0.2226
      8 N          64.4041   88.6709   14.3352 N.am    1  UNL1       -0.2999
      9 H          64.6252   88.6898   13.3761 H       1  UNL1        0.1498
     10 C          64.3818   89.9459   15.1250 C.3     1  UNL1        0.1278
     11 C          65.5578   90.8760   15.0812 C.ar    1  UNL1        0.0320
     12 C          66.7561   90.5311   14.2476 C.ar    1  UNL1        0.0004
     13 C          67.9321   91.4612   14.2038 C.ar    1  UNL1       -0.0001
     14 C          67.9098   92.7362   14.9936 C.ar    1  UNL1        0.0031
     15 C          66.7114   93.0811   15.8273 C.ar    1  UNL1        0.0366
     16 C          65.5354   92.1510   15.8711 C.ar    1  UNL1        0.1362
     17 O          64.3370   92.4959   16.7048 O.3     1  UNL1       -0.4730
     18 C          63.1610   91.5658   16.7486 C.3     1  UNL1        0.2364
     19 C          63.1834   90.2907   15.9587 C.3     1  UNL1        0.1762
     20 O          62.0074   89.3606   16.0025 O.3     1  UNL1       -0.3788
     21 H          61.3243   89.7303   16.5834 H       1  UNL1        0.2106
     22 C          64.2331   84.7742   14.9231 C.3     1  UNL1        0.0355
     23 C          63.6394   83.5391   14.3133 C.ar    1  UNL1       -0.0217
     24 C          62.3770   82.9570   14.8767 C.ar    1  UNL1       -0.0043
     25 C          61.7832   81.7218   14.2669 C.ar    1  UNL1       -0.0003
     26 C          62.4518   81.0688   13.0937 C.ar    1  UNL1       -0.0000
     27 C          63.7143   81.6509   12.5303 C.ar    1  UNL1       -0.0003
     28 C          64.3080   82.8860   13.1401 C.ar    1  UNL1       -0.0043
     29 C          62.5958   87.9152   11.4673 C.3     1  UNL1        0.1021
     30 N          61.6440   88.1489   10.3318 N.3     1  UNL1       -0.2621
     31 C          60.9296   86.9902    9.7015 C.3     1  UNL1        0.0901
     32 C          59.9778   87.2239    8.5659 C.3     1  UNL1        0.0900
     33 N          59.7403   88.6162    8.0608 N.3     1  UNL1       -0.2635
     34 C          60.4546   89.7748    8.6912 C.3     1  UNL1        0.0980
     35 C          61.4065   89.5411    9.8267 C.3     1  UNL1        0.1510
     36 C          62.1208   90.6997   10.4570 C.2     1  UNL1        0.2386
     37 O          61.7267   91.1687   11.8262 O.2     1  UNL1       -0.2736
     38 N          63.2293   91.3893    9.7182 N.am    1  UNL1       -0.2961
     39 H          63.4880   91.0814    8.8196 H       1  UNL1        0.1497
     40 C          63.9436   92.5478   10.3486 C.3     1  UNL1        0.1939
     41 C          65.3470   92.3801   10.8512 C.3     1  UNL1        0.4154
     42 F          66.7502   92.2125   11.3539 F       1  UNL1       -0.1682
     43 F          64.8452   91.5023   11.9592 F       1  UNL1       -0.1682
     44 F          65.8487   93.2580    9.7433 F       1  UNL1       -0.1682
     45 C          58.7884   88.8499    6.9253 C.3     1  UNL1        0.1377
     46 C          59.0176   89.9893    5.9770 C.ar    1  UNL1        0.1391
     47 C          58.0140   91.0389    5.6010 C.ar    1  UNL1        0.0376
     48 C          58.6666   91.9775    4.6298 C.ar    1  UNL1        0.0419
     49 C          60.0735   91.5080    4.4056 C.ar    1  UNL1        0.1624
     50 O          60.2904   90.2792    5.2382 O.2     1  UNL1       -0.4548
     51 C          61.0858   92.1538    3.5066 C.ar    1  UNL1        0.1157
     52 C          60.6757   93.2758    2.5995 C.ar    1  UNL1        0.0223
     53 C          61.6880   93.9217    1.7005 C.ar    1  UNL1        0.0032
     54 C          63.1103   93.4455    1.7087 C.ar    1  UNL1        0.0207
     55 C          63.5205   92.3235    2.6158 C.ar    1  UNL1        0.0989
     56 N          62.5082   91.6777    3.5147 N.ar    1  UNL1       -0.2408
@<TRIPOS>BOND
     1     6     7    2
     2     7     8   am
     3    10     8    1
     4    10    11    1
     5    11    12   ar
     6    12    13   ar
     7    13    14   ar
     8    14    15   ar
     9    15    16   ar
    10    16    17    1
    11    17    18    1
    12    18    19    1
    13    19    20    1
    14     7     5    1
    15     5    22    1
    16    22    23    1
    17    23    24   ar
    18    24    25   ar
    19    25    26   ar
    20    26    27   ar
    21    27    28   ar
    22     5     4    1
    23     4     1    1
    24     1     2    1
    25     1    29    1
    26    29    30    1
    27    30    31    1
    28    31    32    1
    29    32    33    1
    30    33    45    1
    31    45    46    1
    32    46    47   ar
    33    47    48   ar
    34    48    49   ar
    35    49    51    1
    36    51    52   ar
    37    52    53   ar
    38    53    54   ar
    39    54    55   ar
    40    55    56   ar
    41    49    50   ar
    42    33    34    1
    43    34    35    1
    44    35    36    1
    45    36    37    2
    46    36    38   am
    47    38    40    1
    48    40    41    1
    49    41    42    1
    50    41    43    1
    51    41    44    1
    52    19    10    1
    53    28    23   ar
    54    35    30    1
    55    16    11   ar
    56    50    46   ar
    57    56    51   ar
    58     8     9    1
    59    20    21    1
    60     2     3    1
    61    38    39    1
@<TRIPOS>MOLECULE
*****
 56 61 0 0 0
SMALL
GASTEIGER

@<TRIPOS>ATOM
      1 C          62.6469   89.2755   12.5342 C.3     1  UNL1        0.1269
      2 O          62.6147   90.7648   12.3588 O.3     1  UNL1       -0.3830
      3 H          62.6776   90.9807   11.4152 H       1  UNL1        0.2104
      4 C          62.5637   88.6802   13.9085 C.3     1  UNL1        0.0401
      5 C          63.5670   89.0657   14.9548 C.3     1  UNL1        0.0833
      6 O          63.6885   91.5090   15.8296 O.2     1  UNL1       -0.2751
      7 C          64.1972   90.4266   14.9244 C.2     1  UNL1        0.2226
      8 N          65.3361   90.7049   13.9887 N.am    1  UNL1       -0.2999
      9 H          65.6700   89.9944   13.3946 H       1  UNL1        0.1498
     10 C          65.9663   92.0657   13.9582 C.3     1  UNL1        0.1278
     11 C          65.8732   92.9079   12.7204 C.ar    1  UNL1        0.0320
     12 C          65.1498   92.3892   11.5131 C.ar    1  UNL1        0.0004
     13 C          65.0567   93.2313   10.2753 C.ar    1  UNL1       -0.0001
     14 C          65.6869   94.5921   10.2448 C.ar    1  UNL1        0.0031
     15 C          66.4102   95.1108   11.4521 C.ar    1  UNL1        0.0366
     16 C          66.5033   94.2687   12.6900 C.ar    1  UNL1        0.1362
     17 O          67.2267   94.7875   13.8973 O.3     1  UNL1       -0.4730
     18 C          67.3198   93.9453   15.1351 C.3     1  UNL1        0.2364
     19 C          66.6896   92.5845   15.1656 C.3     1  UNL1        0.1762
     20 O          66.7827   91.7423   16.4034 O.3     1  UNL1       -0.3788
     21 H          67.2793   92.2224   17.0844 H       1  UNL1        0.2106
     22 C          63.9402   88.0903   16.0315 C.3     1  UNL1        0.0355
     23 C          63.9600   86.6196   15.7373 C.ar    1  UNL1       -0.0217
     24 C          64.9831   86.0568   14.7958 C.ar    1  UNL1       -0.0043
     25 C          65.0028   84.5860   14.5015 C.ar    1  UNL1       -0.0003
     26 C          63.9995   83.6781   15.1488 C.ar    1  UNL1       -0.0000
     27 C          62.9763   84.2410   16.0903 C.ar    1  UNL1       -0.0003
     28 C          62.9566   85.7116   16.3846 C.ar    1  UNL1       -0.0043
     29 C          62.7622   88.3814   11.3353 C.3     1  UNL1        0.1021
     30 N          61.7759   88.5027   10.2117 N.3     1  UNL1       -0.2621
     31 C          60.9873   89.7670   10.0391 C.3     1  UNL1        0.0901
     32 C          60.0010   89.8882    8.9155 C.3     1  UNL1        0.0900
     33 N          59.8033   88.7452    7.9644 N.3     1  UNL1       -0.2635
     34 C          60.5919   87.4810    8.1370 C.3     1  UNL1        0.0980
     35 C          61.5782   87.3597    9.2606 C.3     1  UNL1        0.1510
     36 C          62.3668   86.0955    9.4332 C.2     1  UNL1        0.2386
     37 O          63.1599   85.5437    8.2858 O.2     1  UNL1       -0.2736
     38 N          62.3624   85.3830   10.7532 N.am    1  UNL1       -0.2961
     39 H          61.8418   85.7452   11.5063 H       1  UNL1        0.1497
     40 C          63.1510   84.1188   10.9258 C.3     1  UNL1        0.1939
     41 C          62.6612   83.0506   11.8581 C.3     1  UNL1        0.4154
     42 F          62.1714   81.9824   12.7903 F       1  UNL1       -0.1682
     43 F          62.1305   84.1033   12.7855 F       1  UNL1       -0.1682
     44 F          63.1918   81.9979   10.9306 F       1  UNL1       -0.1682
     45 C          58.8170   88.8665    6.8408 C.3     1  UNL1        0.1377
     46 C          58.8951   90.0295    5.8966 C.ar    1  UNL1        0.1391
     47 C          57.7689   90.9552    5.5431 C.ar    1  UNL1        0.0376
     48 C          58.2907   91.9688    4.5682 C.ar    1  UNL1        0.0419
     49 C          59.7394   91.6695    4.3193 C.ar    1  UNL1        0.1624
     50 O          60.1128   90.4710    5.1403 O.2     1  UNL1       -0.4548
     51 C          60.6539   92.4345    3.4091 C.ar    1  UNL1        0.1157
     52 C          62.0704   91.9806    3.2149 C.ar    1  UNL1        0.0223
     53 C          62.9849   92.7456    2.3047 C.ar    1  UNL1        0.0032
     54 C          62.4830   93.9644    1.5889 C.ar    1  UNL1        0.0207
     55 C          61.0666   94.4184    1.7831 C.ar    1  UNL1        0.0989
     56 N          60.1521   93.6534    2.6932 N.ar    1  UNL1       -0.2408
@<TRIPOS>BOND
     1     6     7    2
     2     7     8   am
     3    10     8    1
     4    10    11    1
     5    11    12   ar
     6    12    13   ar
     7    13    14   ar
     8    14    15   ar
     9    15    16   ar
    10    16    17    1
    11    17    18    1
    12    18    19    1
    13    19    20    1
    14     7     5    1
    15     5    22    1
    16    22    23    1
    17    23    24   ar
    18    24    25   ar
    19    25    26   ar
    20    26    27   ar
    21    27    28   ar
    22     5     4    1
    23     4     1    1
    24     1     2    1
    25     1    29    1
    26    29    30    1
    27    30    31    1
    28    31    32    1
    29    32    33    1
    30    33    45    1
    31    45    46    1
    32    46    47   ar
    33    47    48   ar
    34    48    49   ar
    35    49    51    1
    36    51    52   ar
    37    52    53   ar
    38    53    54   ar
    39    54    55   ar
    40    55    56   ar
    41    49    50   ar
    42    33    34    1
    43    34    35    1
    44    35    36    1
    45    36    37    2
    46    36    38   am
    47    38    40    1
    48    40    41    1
    49    41    42    1
    50    41    43    1
    51    41    44    1
    52    19    10    1
    53    28    23   ar
    54    35    30    1
    55    16    11   ar
    56    50    46   ar
    57    56    51   ar
    58     8     9    1
    59    20    21    1
    60     2     3    1
    61    38    39    1
@<TRIPOS>MOLECULE
*****
 56 61 0 0 0
SMALL
GASTEIGER

@<TRIPOS>ATOM
      1 C          62.2675   86.5228   10.8743 C.3     1  UNL1        0.1269
      2 O          62.8707   85.6193    9.8401 O.3     1  UNL1       -0.3830
      3 H          62.1780   85.3145    9.2333 H       1  UNL1        0.2104
      4 C          63.1345   87.1308   11.9367 C.3     1  UNL1        0.0401
      5 C          63.5410   86.3173   13.1295 C.3     1  UNL1        0.0833
      6 O          61.6157   84.7715   13.9382 O.2     1  UNL1       -0.2751
      7 C          62.9751   84.9422   13.3277 C.2     1  UNL1        0.2226
      8 N          63.7688   83.7380   12.9153 N.am    1  UNL1       -0.2999
      9 H          64.6610   83.8501   12.5146 H       1  UNL1        0.1498
     10 C          63.2030   82.3631   13.1135 C.3     1  UNL1        0.1278
     11 C          63.1322   81.4077   11.9593 C.ar    1  UNL1        0.0320
     12 C          63.6272   81.8272   10.6069 C.ar    1  UNL1        0.0004
     13 C          63.5564   80.8718    9.4527 C.ar    1  UNL1       -0.0001
     14 C          62.9907   79.4968    9.6509 C.ar    1  UNL1        0.0031
     15 C          62.4956   79.0773   11.0033 C.ar    1  UNL1        0.0366
     16 C          62.5664   80.0327   12.1575 C.ar    1  UNL1        0.1362
     17 O          62.0714   79.6131   13.5099 O.3     1  UNL1       -0.4730
     18 C          62.1422   80.5685   14.6641 C.3     1  UNL1        0.2364
     19 C          62.7080   81.9435   14.4658 C.3     1  UNL1        0.1762
     20 O          62.7788   82.8990   15.6200 O.3     1  UNL1       -0.3788
     21 H          62.4206   82.4732   16.4146 H       1  UNL1        0.2106
     22 C          64.5134   86.8786   14.1241 C.3     1  UNL1        0.0355
     23 C          64.1612   88.1103   14.9044 C.ar    1  UNL1       -0.0217
     24 C          63.3954   87.9912   16.1887 C.ar    1  UNL1       -0.0043
     25 C          63.0432   89.2229   16.9689 C.ar    1  UNL1       -0.0003
     26 C          63.4567   90.5738   16.4649 C.ar    1  UNL1       -0.0000
     27 C          64.2224   90.6930   15.1805 C.ar    1  UNL1       -0.0003
     28 C          64.5746   89.4613   14.4003 C.ar    1  UNL1       -0.0043
     29 C          60.7971   86.8184   10.8462 C.3     1  UNL1        0.1021
     30 N          60.2039   87.5633    9.6871 N.3     1  UNL1       -0.2621
     31 C          59.4183   86.8250    8.6441 C.3     1  UNL1        0.0901
     32 C          58.8251   87.5698    7.4851 C.3     1  UNL1        0.0900
     33 N          59.0175   89.0530    7.3691 N.3     1  UNL1       -0.2635
     34 C          59.8031   89.7912    8.4121 C.3     1  UNL1        0.0980
     35 C          60.3963   89.0463    9.5711 C.3     1  UNL1        0.1510
     36 C          61.1819   89.7845   10.6141 C.2     1  UNL1        0.2386
     37 O          60.5503   90.1165   11.9335 O.2     1  UNL1       -0.2736
     38 N          62.5992   90.1908   10.3377 N.am    1  UNL1       -0.2961
     39 H          63.0138   89.9729    9.4717 H       1  UNL1        0.1497
     40 C          63.3848   90.9290   11.3806 C.3     1  UNL1        0.1939
     41 C          64.3491   92.0031   10.9727 C.3     1  UNL1        0.4154
     42 F          65.3134   93.0772   10.5647 F       1  UNL1       -0.1682
     43 F          65.1805   91.7185   12.1884 F       1  UNL1       -0.1682
     44 F          63.5178   92.2877    9.7570 F       1  UNL1       -0.1682
     45 C          58.4243   89.7978    6.2101 C.3     1  UNL1        0.1377
     46 C          59.3034   90.6307    5.3248 C.ar    1  UNL1        0.1391
     47 C          60.8032   90.6169    5.3072 C.ar    1  UNL1        0.0376
     48 C          61.2637   91.6013    4.2733 C.ar    1  UNL1        0.0419
     49 C          60.0484   92.2235    3.6519 C.ar    1  UNL1        0.1624
     50 O          58.8369   91.6236    4.3018 O.2     1  UNL1       -0.4548
     51 C          60.0453   93.2630    2.5705 C.ar    1  UNL1        0.1157
     52 C          59.9149   92.8507    1.1342 C.ar    1  UNL1        0.0223
     53 C          59.9118   93.8902    0.0528 C.ar    1  UNL1        0.0032
     54 C          60.0390   95.3420    0.4078 C.ar    1  UNL1        0.0207
     55 C          60.1694   95.7543    1.8442 C.ar    1  UNL1        0.0989
     56 N          60.1725   94.7148    2.9254 N.ar    1  UNL1       -0.2408
@<TRIPOS>BOND
     1     6     7    2
     2     7     8   am
     3    10     8    1
     4    10    11    1
     5    11    12   ar
     6    12    13   ar
     7    13    14   ar
     8    14    15   ar
     9    15    16   ar
    10    16    17    1
    11    17    18    1
    12    18    19    1
    13    19    20    1
    14     7     5    1
    15     5    22    1
    16    22    23    1
    17    23    24   ar
    18    24    25   ar
    19    25    26   ar
    20    26    27   ar
    21    27    28   ar
    22     5     4    1
    23     4     1    1
    24     1     2    1
    25     1    29    1
    26    29    30    1
    27    30    31    1
    28    31    32    1
    29    32    33    1
    30    33    45    1
    31    45    46    1
    32    46    47   ar
    33    47    48   ar
    34    48    49   ar
    35    49    51    1
    36    51    52   ar
    37    52    53   ar
    38    53    54   ar
    39    54    55   ar
    40    55    56   ar
    41    49    50   ar
    42    33    34    1
    43    34    35    1
    44    35    36    1
    45    36    37    2
    46    36    38   am
    47    38    40    1
    48    40    41    1
    49    41    42    1
    50    41    43    1
    51    41    44    1
    52    19    10    1
    53    28    23   ar
    54    35    30    1
    55    16    11   ar
    56    50    46   ar
    57    56    51   ar
    58     8     9    1
    59    20    21    1
    60     2     3    1
    61    38    39    1
@<TRIPOS>MOLECULE
*****
 56 61 0 0 0
SMALL
GASTEIGER

@<TRIPOS>ATOM
      1 C          62.0147   85.3856    9.1612 C.3     1  UNL1        0.1269
      2 O          63.2428   85.1228    8.3411 O.3     1  UNL1       -0.3830
      3 H          63.3380   85.8166    7.6699 H       1  UNL1        0.2104
      4 C          61.6415   84.4510   10.2736 C.3     1  UNL1        0.0401
      5 C          62.5733   84.2545   11.4325 C.3     1  UNL1        0.0833
      6 O          61.2891   86.0718   12.7734 O.2     1  UNL1       -0.2751
      7 C          62.4026   85.0713   12.6790 C.2     1  UNL1        0.2226
      8 N          63.3455   84.8874   13.8311 N.am    1  UNL1       -0.2999
      9 H          64.0763   84.2307   13.7691 H       1  UNL1        0.1498
     10 C          63.1748   85.7042   15.0776 C.3     1  UNL1        0.1278
     11 C          63.5304   87.1614   15.0740 C.ar    1  UNL1        0.0320
     12 C          64.0567   87.8019   13.8239 C.ar    1  UNL1        0.0004
     13 C          64.4123   89.2591   13.8203 C.ar    1  UNL1       -0.0001
     14 C          64.2417   90.0759   15.0668 C.ar    1  UNL1        0.0031
     15 C          63.7154   89.4354   16.3169 C.ar    1  UNL1        0.0366
     16 C          63.3598   87.9781   16.3205 C.ar    1  UNL1        0.1362
     17 O          62.8335   87.3376   17.5706 O.3     1  UNL1       -0.4730
     18 C          62.4779   85.8804   17.5742 C.3     1  UNL1        0.2364
     19 C          62.6486   85.0637   16.3276 C.3     1  UNL1        0.1762
     20 O          62.2930   83.6064   16.3312 O.3     1  UNL1       -0.3788
     21 H          61.9710   83.3543   17.2108 H       1  UNL1        0.2106
     22 C          63.6758   83.2412   11.3449 C.3     1  UNL1        0.0355
     23 C          63.3480   81.7781   11.3000 C.ar    1  UNL1       -0.0217
     24 C          63.4028   81.0369    9.9972 C.ar    1  UNL1       -0.0043
     25 C          63.0750   79.5738    9.9523 C.ar    1  UNL1       -0.0003
     26 C          62.6924   78.8520   11.2104 C.ar    1  UNL1       -0.0000
     27 C          62.6376   79.5933   12.5133 C.ar    1  UNL1       -0.0003
     28 C          62.9654   81.0563   12.5581 C.ar    1  UNL1       -0.0043
     29 C          61.1598   86.5830    8.8690 C.3     1  UNL1        0.1021
     30 N          61.5512   87.9310    9.3977 N.3     1  UNL1       -0.2621
     31 C          62.6296   88.0460   10.4341 C.3     1  UNL1        0.0901
     32 C          63.0211   89.3940   10.9628 C.3     1  UNL1        0.0900
     33 N          62.3341   90.6271   10.4551 N.3     1  UNL1       -0.2635
     34 C          61.2558   90.5122    9.4189 C.3     1  UNL1        0.0980
     35 C          60.8643   89.1641    8.8902 C.3     1  UNL1        0.1510
     36 C          59.7860   89.0491    7.8539 C.2     1  UNL1        0.2386
     37 O          58.7916   87.9286    7.9274 O.2     1  UNL1       -0.2736
     38 N          59.7021   90.0548    6.7440 N.am    1  UNL1       -0.2961
     39 H          60.3548   90.7902    6.6957 H       1  UNL1        0.1497
     40 C          58.6237   89.9398    5.7077 C.3     1  UNL1        0.1939
     41 C          57.8622   91.1591    5.2792 C.3     1  UNL1        0.4154
     42 F          57.1007   92.3783    4.8507 F       1  UNL1       -0.1682
     43 F          59.1543   91.8675    4.9989 F       1  UNL1       -0.1682
     44 F          56.5702   90.4506    5.5595 F       1  UNL1       -0.1682
     45 C          62.7256   91.9752   10.9839 C.3     1  UNL1        0.1377
     46 C          64.1436   92.2355   11.3982 C.ar    1  UNL1        0.1391
     47 C          65.2792   92.5864   10.4831 C.ar    1  UNL1        0.0376
     48 C          66.5124   92.7583   11.3196 C.ar    1  UNL1        0.0419
     49 C          66.1389   92.5136   12.7516 C.ar    1  UNL1        0.1624
     50 O          64.6749   92.1904   12.8002 O.2     1  UNL1       -0.4548
     51 C          67.0666   92.5803   13.9285 C.ar    1  UNL1        0.1157
     52 C          66.5210   92.8520   15.2991 C.ar    1  UNL1        0.0223
     53 C          67.4487   92.9187   16.4760 C.ar    1  UNL1        0.0032
     54 C          68.9218   92.7137   16.2822 C.ar    1  UNL1        0.0207
     55 C          69.4675   92.4420   14.9116 C.ar    1  UNL1        0.0989
     56 N          68.5398   92.3753   13.7348 N.ar    1  UNL1       -0.2408
@<TRIPOS>BOND
     1     6     7    2
     2     7     8   am
     3    10     8    1
     4    10    11    1
     5    11    12   ar
     6    12    13   ar
     7    13    14   ar
     8    14    15   ar
     9    15    16   ar
    10    16    17    1
    11    17    18    1
    12    18    19    1
    13    19    20    1
    14     7     5    1
    15     5    22    1
    16    22    23    1
    17    23    24   ar
    18    24    25   ar
    19    25    26   ar
    20    26    27   ar
    21    27    28   ar
    22     5     4    1
    23     4     1    1
    24     1     2    1
    25     1    29    1
    26    29    30    1
    27    30    31    1
    28    31    32    1
    29    32    33    1
    30    33    45    1
    31    45    46    1
    32    46    47   ar
    33    47    48   ar
    34    48    49   ar
    35    49    51    1
    36    51    52   ar
    37    52    53   ar
    38    53    54   ar
    39    54    55   ar
    40    55    56   ar
    41    49    50   ar
    42    33    34    1
    43    34    35    1
    44    35    36    1
    45    36    37    2
    46    36    38   am
    47    38    40    1
    48    40    41    1
    49    41    42    1
    50    41    43    1
    51    41    44    1
    52    19    10    1
    53    28    23   ar
    54    35    30    1
    55    16    11   ar
    56    50    46   ar
    57    56    51   ar
    58     8     9    1
    59    20    21    1
    60     2     3    1
    61    38    39    1
@<TRIPOS>MOLECULE
*****
 56 61 0 0 0
SMALL
GASTEIGER

@<TRIPOS>ATOM
      1 C          61.4239   86.7160    9.8808 C.3     1  UNL1        0.1269
      2 O          62.6857   86.6447    9.0730 O.3     1  UNL1       -0.3830
      3 H          62.4656   86.6500    8.1283 H       1  UNL1        0.2104
      4 C          61.4920   86.7222   11.3792 C.3     1  UNL1        0.0401
      5 C          62.7979   86.4677   12.0717 C.3     1  UNL1        0.0833
      6 O          64.3562   87.1849   14.0231 O.2     1  UNL1       -0.2751
      7 C          63.4309   87.5469   12.8993 C.2     1  UNL1        0.2226
      8 N          63.1384   88.9880   12.6032 N.am    1  UNL1       -0.2999
      9 H          62.5311   89.2255   11.8656 H       1  UNL1        0.1498
     10 C          63.7713   90.0671   13.4308 C.3     1  UNL1        0.1278
     11 C          64.5037   91.1927   12.7624 C.ar    1  UNL1        0.0320
     12 C          64.6033   91.2390   11.2664 C.ar    1  UNL1        0.0004
     13 C          65.3357   92.3646   10.5980 C.ar    1  UNL1       -0.0001
     14 C          65.9685   93.4437   11.4256 C.ar    1  UNL1        0.0031
     15 C          65.8690   93.3973   12.9215 C.ar    1  UNL1        0.0366
     16 C          65.1365   92.2718   13.5899 C.ar    1  UNL1        0.1362
     17 O          65.0370   92.2255   15.0859 O.3     1  UNL1       -0.4730
     18 C          64.3046   91.0999   15.7543 C.3     1  UNL1        0.2364
     19 C          63.6717   90.0208   14.9267 C.3     1  UNL1        0.1762
     20 O          62.9393   88.8952   15.5951 O.3     1  UNL1       -0.3788
     21 H          62.9691   89.0162   16.5570 H       1  UNL1        0.2106
     22 C          63.4711   85.1341   11.9366 C.3     1  UNL1        0.0355
     23 C          62.9464   83.9492   12.6921 C.ar    1  UNL1       -0.0217
     24 C          62.6676   84.0602   14.1618 C.ar    1  UNL1       -0.0043
     25 C          62.1429   82.8752   14.9172 C.ar    1  UNL1       -0.0003
     26 C          61.8971   81.5793   14.2030 C.ar    1  UNL1       -0.0000
     27 C          62.1759   81.4683   12.7333 C.ar    1  UNL1       -0.0003
     28 C          62.7006   82.6532   11.9779 C.ar    1  UNL1       -0.0043
     29 C          60.0939   86.7811    9.1902 C.3     1  UNL1        0.1021
     30 N          59.8083   87.8847    8.2152 N.3     1  UNL1       -0.2621
     31 C          59.4484   87.5573    6.7962 C.3     1  UNL1        0.0901
     32 C          59.1628   88.6609    5.8212 C.3     1  UNL1        0.0900
     33 N          59.2372   90.0918    6.2652 N.3     1  UNL1       -0.2635
     34 C          59.5970   90.4191    7.6841 C.3     1  UNL1        0.0980
     35 C          59.8826   89.3155    8.6591 C.3     1  UNL1        0.1510
     36 C          60.2425   89.6428   10.0780 C.2     1  UNL1        0.2386
     37 O          61.6117   90.1612   10.4040 O.2     1  UNL1       -0.2736
     38 N          59.2330   89.4516   11.1710 N.am    1  UNL1       -0.2961
     39 H          58.3343   89.1113   10.9571 H       1  UNL1        0.1497
     40 C          59.5929   89.7789   12.5899 C.3     1  UNL1        0.1939
     41 C          58.9155   89.0618   13.7200 C.3     1  UNL1        0.4154
     42 F          58.2381   88.3448   14.8500 F       1  UNL1       -0.1682
     43 F          60.0769   89.3761   14.6157 F       1  UNL1       -0.1682
     44 F          57.7541   88.7475   12.8243 F       1  UNL1       -0.1682
     45 C          58.9516   91.1954    5.2902 C.3     1  UNL1        0.1377
     46 C          60.0229   91.6603    4.3488 C.ar    1  UNL1        0.1391
     47 C          61.4561   91.2176    4.3563 C.ar    1  UNL1        0.0376
     48 C          62.1681   91.9331    3.2468 C.ar    1  UNL1        0.0419
     49 C          61.1749   92.8181    2.5536 C.ar    1  UNL1        0.1624
     50 O          59.8492   92.6495    3.2347 O.2     1  UNL1       -0.4548
     51 C          61.4579   93.7144    1.3846 C.ar    1  UNL1        0.1157
     52 C          62.1912   93.1801    0.1901 C.ar    1  UNL1        0.0223
     53 C          62.4742   94.0764   -0.9789 C.ar    1  UNL1        0.0032
     54 C          62.0238   95.5069   -0.9535 C.ar    1  UNL1        0.0207
     55 C          61.2904   96.0413    0.2410 C.ar    1  UNL1        0.0989
     56 N          61.0075   95.1450    1.4100 N.ar    1  UNL1       -0.2408
@<TRIPOS>BOND
     1     6     7    2
     2     7     8   am
     3    10     8    1
     4    10    11    1
     5    11    12   ar
     6    12    13   ar
     7    13    14   ar
     8    14    15   ar
     9    15    16   ar
    10    16    17    1
    11    17    18    1
    12    18    19    1
    13    19    20    1
    14     7     5    1
    15     5    22    1
    16    22    23    1
    17    23    24   ar
    18    24    25   ar
    19    25    26   ar
    20    26    27   ar
    21    27    28   ar
    22     5     4    1
    23     4     1    1
    24     1     2    1
    25     1    29    1
    26    29    30    1
    27    30    31    1
    28    31    32    1
    29    32    33    1
    30    33    45    1
    31    45    46    1
    32    46    47   ar
    33    47    48   ar
    34    48    49   ar
    35    49    51    1
    36    51    52   ar
    37    52    53   ar
    38    53    54   ar
    39    54    55   ar
    40    55    56   ar
    41    49    50   ar
    42    33    34    1
    43    34    35    1
    44    35    36    1
    45    36    37    2
    46    36    38   am
    47    38    40    1
    48    40    41    1
    49    41    42    1
    50    41    43    1
    51    41    44    1
    52    19    10    1
    53    28    23   ar
    54    35    30    1
    55    16    11   ar
    56    50    46   ar
    57    56    51   ar
    58     8     9    1
    59    20    21    1
    60     2     3    1
    61    38    39    1
@<TRIPOS>MOLECULE
*****
 56 61 0 0 0
SMALL
GASTEIGER

@<TRIPOS>ATOM
      1 C          58.0215   92.8983   -0.7741 C.3     1  UNL1        0.1269
      2 O          58.6268   91.6629   -1.3718 O.3     1  UNL1       -0.3830
      3 H          59.3535   91.3539   -0.8085 H       1  UNL1        0.2104
      4 C          56.8719   93.5768   -1.4583 C.3     1  UNL1        0.0401
      5 C          57.1307   94.5738   -2.5487 C.3     1  UNL1        0.0833
      6 O          57.7053   93.1266   -4.6286 O.2     1  UNL1       -0.2751
      7 C          58.0594   94.2291   -3.6752 C.2     1  UNL1        0.2226
      8 N          59.3422   94.9871   -3.8482 N.am    1  UNL1       -0.2999
      9 H          59.5746   95.7107   -3.2224 H       1  UNL1        0.1498
     10 C          60.2709   94.6425   -4.9746 C.3     1  UNL1        0.1278
     11 C          61.6199   94.0558   -4.6817 C.ar    1  UNL1        0.0320
     12 C          62.0403   93.8137   -3.2623 C.ar    1  UNL1        0.0004
     13 C          63.3894   93.2270   -2.9694 C.ar    1  UNL1       -0.0001
     14 C          64.3180   92.8824   -4.0958 C.ar    1  UNL1        0.0031
     15 C          63.8976   93.1246   -5.5151 C.ar    1  UNL1        0.0366
     16 C          62.5486   93.7113   -5.8081 C.ar    1  UNL1        0.1362
     17 O          62.1282   93.9534   -7.2275 O.3     1  UNL1       -0.4730
     18 C          60.7791   94.5401   -7.5204 C.3     1  UNL1        0.2364
     19 C          59.8504   94.8847   -6.3939 C.3     1  UNL1        0.1762
     20 O          58.5014   95.4714   -6.6869 O.3     1  UNL1       -0.3788
     21 H          58.3895   95.5618   -7.6461 H       1  UNL1        0.2106
     22 C          56.4609   95.9154   -2.5127 C.3     1  UNL1        0.0355
     23 C          54.9786   96.0194   -2.7174 C.ar    1  UNL1       -0.0217
     24 C          54.4356   96.7504   -3.9094 C.ar    1  UNL1       -0.0043
     25 C          52.9532   96.8543   -4.1141 C.ar    1  UNL1       -0.0003
     26 C          52.0140   96.2273   -3.1270 C.ar    1  UNL1       -0.0000
     27 C          52.5570   95.4963   -1.9350 C.ar    1  UNL1       -0.0003
     28 C          54.0393   95.3923   -1.7302 C.ar    1  UNL1       -0.0043
     29 C          58.5658   93.4554    0.5080 C.3     1  UNL1        0.1021
     30 N          59.8015   94.3055    0.4915 N.3     1  UNL1       -0.2621
     31 C          59.9199   95.4378   -0.4852 C.3     1  UNL1        0.0901
     32 C          61.1556   96.2879   -0.5017 C.3     1  UNL1        0.0900
     33 N          62.2729   96.0057    0.4586 N.3     1  UNL1       -0.2635
     34 C          62.1545   94.8735    1.4353 C.3     1  UNL1        0.0980
     35 C          60.9188   94.0234    1.4517 C.3     1  UNL1        0.1510
     36 C          60.8003   92.8911    2.4284 C.2     1  UNL1        0.2386
     37 O          61.9142   91.8952    2.5609 O.2     1  UNL1       -0.2736
     38 N          59.5680   92.7548    3.2727 N.am    1  UNL1       -0.2961
     39 H          58.8369   93.4084    3.1858 H       1  UNL1        0.1497
     40 C          59.4495   91.6225    4.2494 C.3     1  UNL1        0.1939
     41 C          58.1226   91.3057    4.8731 C.3     1  UNL1        0.4154
     42 F          56.7957   90.9889    5.4967 F       1  UNL1       -0.1682
     43 F          58.7673   90.2332    5.7001 F       1  UNL1       -0.1682
     44 F          57.4778   92.3782    4.0461 F       1  UNL1       -0.1682
     45 C          63.5087   96.8559    0.4421 C.3     1  UNL1        0.1377
     46 C          64.4101   96.8457   -0.7568 C.ar    1  UNL1        0.1391
     47 C          65.9098   96.8305   -0.7322 C.ar    1  UNL1        0.0376
     48 C          66.3967   96.8244   -2.1510 C.ar    1  UNL1        0.0419
     49 C          65.1978   96.8358   -3.0525 C.ar    1  UNL1        0.1624
     50 O          63.9700   96.8490   -2.1908 O.2     1  UNL1       -0.4548
     51 C          65.2223   96.8342   -4.5523 C.ar    1  UNL1        0.1157
     52 C          63.9359   96.8544   -5.3235 C.ar    1  UNL1        0.0223
     53 C          63.9605   96.8529   -6.8233 C.ar    1  UNL1        0.0032
     54 C          65.2715   96.8312   -7.5518 C.ar    1  UNL1        0.0207
     55 C          66.5580   96.8111   -6.7806 C.ar    1  UNL1        0.0989
     56 N          66.5333   96.8126   -5.2809 N.ar    1  UNL1       -0.2408
@<TRIPOS>BOND
     1     6     7    2
     2     7     8   am
     3    10     8    1
     4    10    11    1
     5    11    12   ar
     6    12    13   ar
     7    13    14   ar
     8    14    15   ar
     9    15    16   ar
    10    16    17    1
    11    17    18    1
    12    18    19    1
    13    19    20    1
    14     7     5    1
    15     5    22    1
    16    22    23    1
    17    23    24   ar
    18    24    25   ar
    19    25    26   ar
    20    26    27   ar
    21    27    28   ar
    22     5     4    1
    23     4     1    1
    24     1     2    1
    25     1    29    1
    26    29    30    1
    27    30    31    1
    28    31    32    1
    29    32    33    1
    30    33    45    1
    31    45    46    1
    32    46    47   ar
    33    47    48   ar
    34    48    49   ar
    35    49    51    1
    36    51    52   ar
    37    52    53   ar
    38    53    54   ar
    39    54    55   ar
    40    55    56   ar
    41    49    50   ar
    42    33    34    1
    43    34    35    1
    44    35    36    1
    45    36    37    2
    46    36    38   am
    47    38    40    1
    48    40    41    1
    49    41    42    1
    50    41    43    1
    51    41    44    1
    52    19    10    1
    53    28    23   ar
    54    35    30    1
    55    16    11   ar
    56    50    46   ar
    57    56    51   ar
    58     8     9    1
    59    20    21    1
    60     2     3    1
    61    38    39    1
