@<TRIPOS>MOLECULE
*****
 29 32 0 0 0
SMALL
GASTEIGER

@<TRIPOS>ATOM
      1 C          65.3603   92.2716   14.3300 C.ar    1  UNL1        0.0991
      2 S          66.3003   93.0663   13.4728 S.2     1  UNL1       -0.0473
      3 C          66.0577   92.6854   12.0424 C.ar    1  UNL1        0.1630
      4 N          64.9677   91.6553   12.0155 N.ar    1  UNL1       -0.2278
      5 C          64.5366   91.3996   13.4293 C.ar    1  UNL1        0.0805
      6 N          66.7786   93.2377   10.8485 N.pl3   1  UNL1       -0.2830
      7 C          66.5771   94.6686   10.4465 C.3     1  UNL1        0.1247
      8 C          67.2980   95.2209    9.2526 C.3     1  UNL1        0.1636
      9 O          68.2204   94.3421    8.4607 O.3     1  UNL1       -0.3501
     10 C          68.4218   92.9111    8.8628 C.3     1  UNL1        0.1636
     11 C          67.7009   92.3589   10.0567 C.3     1  UNL1        0.1247
     12 N          66.4543   92.7431   16.6388 N.am    1  UNL1       -0.3249
     13 C          65.2612   92.3374   15.8252 C.2     1  UNL1        0.2500
     14 O          63.9690   91.9974   16.5070 O.2     1  UNL1       -0.2698
     15 H          66.3893   92.7862   17.6202 H       1  UNL1        0.1453
     16 H          67.3024   92.9662   16.1914 H       1  UNL1        0.1453
     17 C          63.4693   90.4402   13.8657 C.3     1  UNL1        0.1319
     18 C          63.1904   89.2092   13.0554 C.2     1  UNL1        0.2354
     19 O          63.8220   87.9026   13.4345 O.2     1  UNL1       -0.2741
     20 N          62.2797   89.2849   11.8658 N.am    1  UNL1       -0.2583
     21 C          61.5798   90.5145   11.3680 C.3     1  UNL1        0.1029
     22 C          60.7767   90.1336   10.1597 C.3     1  UNL1        0.0500
     23 C          60.9802   88.6686    9.9107 C.ar    1  UNL1       -0.0005
     24 C          60.4398   87.7444    8.8601 C.ar    1  UNL1        0.0318
     25 BR         59.5108   88.2690    7.8057 Br      1  UNL1       -0.0493
     26 C          60.8283   86.2956    8.8639 C.ar    1  UNL1        0.0065
     27 C          61.7572   85.7709    9.9183 C.ar    1  UNL1        0.0018
     28 C          62.2978   86.6951   10.9690 C.ar    1  UNL1        0.0146
     29 C          61.9092   88.1440   10.9652 C.ar    1  UNL1        0.0504
@<TRIPOS>BOND
     1    12    13   am
     2    13    14    2
     3    13     1    1
     4     1     2   ar
     5     2     3   ar
     6     3     6    1
     7     6     7    1
     8     7     8    1
     9     8     9    1
    10     9    10    1
    11    10    11    1
    12     3     4   ar
    13     4     5   ar
    14     5    17    1
    15    17    18    1
    16    18    19    2
    17    18    20   am
    18    20    21    1
    19    21    22    1
    20    22    23    1
    21    23    24   ar
    22    24    25    1
    23    24    26   ar
    24    26    27   ar
    25    27    28   ar
    26    28    29   ar
    27     5     1   ar
    28    29    20    1
    29    11     6    1
    30    29    23   ar
    31    12    15    1
    32    12    16    1
@<TRIPOS>MOLECULE
*****
 29 32 0 0 0
SMALL
GASTEIGER

@<TRIPOS>ATOM
      1 C          60.9563   87.4237    9.9268 C.ar    1  UNL1        0.0991
      2 S          61.3978   85.9902    9.9361 S.2     1  UNL1       -0.0473
      3 C          62.2551   85.7770   11.1484 C.ar    1  UNL1        0.1630
      4 N          62.3435   87.0788   11.8883 N.ar    1  UNL1       -0.2278
      5 C          61.5408   88.0965   11.1333 C.ar    1  UNL1        0.0805
      6 N          62.9092   84.4883   11.5502 N.pl3   1  UNL1       -0.2830
      7 C          62.8609   84.0365   12.9796 C.3     1  UNL1        0.1247
      8 C          63.5150   82.7478   13.3814 C.3     1  UNL1        0.1636
      9 O          64.2173   81.9109   12.3536 O.3     1  UNL1       -0.3501
     10 C          64.2655   82.3627   10.9241 C.3     1  UNL1        0.1636
     11 C          63.6115   83.6514   10.5224 C.3     1  UNL1        0.1247
     12 N          60.3041   89.5061    8.5168 N.am    1  UNL1       -0.3249
     13 C          60.0836   88.0708    8.8926 C.2     1  UNL1        0.2500
     14 O          58.9904   87.2825    8.2341 O.2     1  UNL1       -0.2698
     15 H          59.7313   89.9308    7.8380 H       1  UNL1        0.1453
     16 H          61.0216   90.0234    8.9490 H       1  UNL1        0.1453
     17 C          61.3551   89.5345   11.5175 C.3     1  UNL1        0.1319
     18 C          62.5026   90.4944   11.4075 C.2     1  UNL1        0.2354
     19 O          62.7740   91.1932   10.1083 O.2     1  UNL1       -0.2741
     20 N          63.3787   90.7553   12.5968 N.am    1  UNL1       -0.2583
     21 C          63.2309   90.1341   13.9540 C.3     1  UNL1        0.1029
     22 C          64.3173   90.6782   14.8336 C.3     1  UNL1        0.0500
     23 C          65.1364   91.6358   14.0201 C.ar    1  UNL1       -0.0005
     24 C          66.3356   92.4706   14.3595 C.ar    1  UNL1        0.0318
     25 BR         66.9157   92.4229   15.7419 Br      1  UNL1       -0.0493
     26 C          66.9547   93.3530   13.3163 C.ar    1  UNL1        0.0065
     27 C          66.3747   93.4007   11.9339 C.ar    1  UNL1        0.0018
     28 C          65.1754   92.5659   11.5944 C.ar    1  UNL1        0.0146
     29 C          64.5563   91.6835   12.6376 C.ar    1  UNL1        0.0504
@<TRIPOS>BOND
     1    12    13   am
     2    13    14    2
     3    13     1    1
     4     1     2   ar
     5     2     3   ar
     6     3     6    1
     7     6     7    1
     8     7     8    1
     9     8     9    1
    10     9    10    1
    11    10    11    1
    12     3     4   ar
    13     4     5   ar
    14     5    17    1
    15    17    18    1
    16    18    19    2
    17    18    20   am
    18    20    21    1
    19    21    22    1
    20    22    23    1
    21    23    24   ar
    22    24    25    1
    23    24    26   ar
    24    26    27   ar
    25    27    28   ar
    26    28    29   ar
    27     5     1   ar
    28    29    20    1
    29    11     6    1
    30    29    23   ar
    31    12    15    1
    32    12    16    1
@<TRIPOS>MOLECULE
*****
 29 32 0 0 0
SMALL
GASTEIGER

@<TRIPOS>ATOM
      1 C          65.8054   92.5320   14.3322 C.ar    1  UNL1        0.0991
      2 S          66.4917   93.4740   13.3880 S.2     1  UNL1       -0.0473
      3 C          66.0341   93.1509   11.9965 C.ar    1  UNL1        0.1630
      4 N          65.0649   92.0092   12.0808 N.ar    1  UNL1       -0.2278
      5 C          64.9235   91.6267   13.5243 C.ar    1  UNL1        0.0805
      6 N          66.4693   93.8472   10.7413 N.pl3   1  UNL1       -0.2830
      7 C          65.9340   95.2100   10.4155 C.3     1  UNL1        0.1247
      8 C          66.3692   95.9063    9.1602 C.3     1  UNL1        0.1636
      9 O          67.3398   95.2398    8.2307 O.3     1  UNL1       -0.3501
     10 C          67.8750   93.8770    8.5566 C.3     1  UNL1        0.1636
     11 C          67.4398   93.1807    9.8118 C.3     1  UNL1        0.1247
     12 N          67.3458   92.4895   16.4239 N.am    1  UNL1       -0.3249
     13 C          65.9717   92.5008   15.8227 C.2     1  UNL1        0.2500
     14 O          64.7637   92.4810   16.7118 O.2     1  UNL1       -0.2698
     15 H          67.4549   92.4690   17.4021 H       1  UNL1        0.1453
     16 H          68.1386   92.5025   15.8404 H       1  UNL1        0.1453
     17 C          64.0531   90.5312   14.0650 C.3     1  UNL1        0.1319
     18 C          63.5323   89.4652   13.1472 C.2     1  UNL1        0.2354
     19 O          62.8144   89.8459   11.8864 O.2     1  UNL1       -0.2741
     20 N          63.7294   88.0183   13.4904 N.am    1  UNL1       -0.2583
     21 C          64.4238   87.4879   14.7095 C.3     1  UNL1        0.1029
     22 C          64.3902   85.9896   14.6471 C.3     1  UNL1        0.0500
     23 C          63.6751   85.5939   13.3894 C.ar    1  UNL1       -0.0005
     24 C          63.3430   84.2539   12.8028 C.ar    1  UNL1        0.0318
     25 BR         63.7514   83.0001   13.5176 Br      1  UNL1       -0.0493
     26 C          62.6025   84.1677   11.5011 C.ar    1  UNL1        0.0065
     27 C          62.1940   85.4215   10.7861 C.ar    1  UNL1        0.0018
     28 C          62.5261   86.7616   11.3728 C.ar    1  UNL1        0.0146
     29 C          63.2666   86.8478   12.6744 C.ar    1  UNL1        0.0504
@<TRIPOS>BOND
     1    12    13   am
     2    13    14    2
     3    13     1    1
     4     1     2   ar
     5     2     3   ar
     6     3     6    1
     7     6     7    1
     8     7     8    1
     9     8     9    1
    10     9    10    1
    11    10    11    1
    12     3     4   ar
    13     4     5   ar
    14     5    17    1
    15    17    18    1
    16    18    19    2
    17    18    20   am
    18    20    21    1
    19    21    22    1
    20    22    23    1
    21    23    24   ar
    22    24    25    1
    23    24    26   ar
    24    26    27   ar
    25    27    28   ar
    26    28    29   ar
    27     5     1   ar
    28    29    20    1
    29    11     6    1
    30    29    23   ar
    31    12    15    1
    32    12    16    1
@<TRIPOS>MOLECULE
*****
 29 32 0 0 0
SMALL
GASTEIGER

@<TRIPOS>ATOM
      1 C          64.2889   91.2203   13.9947 C.ar    1  UNL1        0.0991
      2 S          65.4079   92.1082   13.5369 S.2     1  UNL1       -0.0473
      3 C          65.3301   92.2191   12.0430 C.ar    1  UNL1        0.1630
      4 N          64.1630   91.3998   11.5776 N.ar    1  UNL1       -0.2278
      5 C          63.5195   90.7825   12.7838 C.ar    1  UNL1        0.0805
      6 N          66.2567   93.0104   11.1682 N.pl3   1  UNL1       -0.2830
      7 C          67.3409   92.3139   10.4006 C.3     1  UNL1        0.1247
      8 C          68.2675   93.1051    9.5258 C.3     1  UNL1        0.1636
      9 O          68.1098   94.5930    9.4187 O.3     1  UNL1       -0.3501
     10 C          67.0256   95.2895   10.1863 C.3     1  UNL1        0.1636
     11 C          66.0990   94.4982   11.0611 C.3     1  UNL1        0.1247
     12 N          63.8610   89.3911   15.7893 N.am    1  UNL1       -0.3249
     13 C          63.9916   90.8375   15.4142 C.2     1  UNL1        0.2500
     14 O          63.8247   91.9012   16.4587 O.2     1  UNL1       -0.2698
     15 H          63.6658   89.1398   16.7210 H       1  UNL1        0.1453
     16 H          63.9705   88.6930   15.1039 H       1  UNL1        0.1453
     17 C          62.3177   89.8850   12.7798 C.3     1  UNL1        0.1319
     18 C          61.4894   89.7463   11.5369 C.2     1  UNL1        0.2354
     19 O          60.5766   90.8595   11.1156 O.2     1  UNL1       -0.2741
     20 N          61.5740   88.4941   10.7152 N.am    1  UNL1       -0.2583
     21 C          62.4369   87.3031   11.0095 C.3     1  UNL1        0.1029
     22 C          62.2067   86.2861    9.9312 C.3     1  UNL1        0.0500
     23 C          61.2015   86.8487    8.9704 C.ar    1  UNL1       -0.0005
     24 C          60.5918   86.2947    7.7169 C.ar    1  UNL1        0.0318
     25 BR         60.9828   84.9301    7.2323 Br      1  UNL1       -0.0493
     26 C          59.5910   87.1053    6.9480 C.ar    1  UNL1        0.0065
     27 C          59.1999   88.4700    7.4325 C.ar    1  UNL1        0.0018
     28 C          59.8097   89.0240    8.6861 C.ar    1  UNL1        0.0146
     29 C          60.8105   88.2134    9.4550 C.ar    1  UNL1        0.0504
@<TRIPOS>BOND
     1    12    13   am
     2    13    14    2
     3    13     1    1
     4     1     2   ar
     5     2     3   ar
     6     3     6    1
     7     6     7    1
     8     7     8    1
     9     8     9    1
    10     9    10    1
    11    10    11    1
    12     3     4   ar
    13     4     5   ar
    14     5    17    1
    15    17    18    1
    16    18    19    2
    17    18    20   am
    18    20    21    1
    19    21    22    1
    20    22    23    1
    21    23    24   ar
    22    24    25    1
    23    24    26   ar
    24    26    27   ar
    25    27    28   ar
    26    28    29   ar
    27     5     1   ar
    28    29    20    1
    29    11     6    1
    30    29    23   ar
    31    12    15    1
    32    12    16    1
@<TRIPOS>MOLECULE
*****
 29 32 0 0 0
SMALL
GASTEIGER

@<TRIPOS>ATOM
      1 C          65.1901   92.0376   13.8317 C.ar    1  UNL1        0.0991
      2 S          66.0599   93.0186   13.1029 S.2     1  UNL1       -0.0473
      3 C          65.7818   92.8836   11.6351 C.ar    1  UNL1        0.1630
      4 N          64.7401   91.8191   11.4567 N.ar    1  UNL1       -0.2278
      5 C          64.3745   91.2963   12.8143 C.ar    1  UNL1        0.0805
      6 N          66.4313   93.6742   10.5383 N.pl3   1  UNL1       -0.2830
      7 C          66.0059   95.0893   10.2807 C.3     1  UNL1        0.1247
      8 C          66.6554   95.8799    9.1839 C.3     1  UNL1        0.1636
      9 O          67.7304   95.2554    8.3446 O.3     1  UNL1       -0.3501
     10 C          68.1558   93.8402    8.6023 C.3     1  UNL1        0.1636
     11 C          67.5063   93.0497    9.6990 C.3     1  UNL1        0.1247
     12 N          63.8694   91.3950   15.9747 N.am    1  UNL1       -0.3249
     13 C          65.1441   91.8337   15.3171 C.2     1  UNL1        0.2500
     14 O          66.3729   92.0685   16.1447 O.2     1  UNL1       -0.2698
     15 H          63.8392   91.2612   16.9496 H       1  UNL1        0.1453
     16 H          63.0629   91.2409   15.4315 H       1  UNL1        0.1453
     17 C          63.3696   90.2209   13.1036 C.3     1  UNL1        0.1319
     18 C          63.8241   88.8911   13.6280 C.2     1  UNL1        0.2354
     19 O          64.6970   88.8237   14.8459 O.2     1  UNL1       -0.2741
     20 N          63.4057   87.6286   12.9343 N.am    1  UNL1       -0.2583
     21 C          62.5397   87.5391   11.7129 C.3     1  UNL1        0.1029
     22 C          62.3787   86.0891   11.3641 C.3     1  UNL1        0.0500
     23 C          63.1450   85.2824   12.3700 C.ar    1  UNL1       -0.0005
     24 C          63.3469   83.8045   12.5277 C.ar    1  UNL1        0.0318
     25 BR         62.7122   82.8531   11.5573 Br      1  UNL1       -0.0493
     26 C          64.1836   83.2779   13.6559 C.ar    1  UNL1        0.0065
     27 C          64.8183   84.2293   14.6264 C.ar    1  UNL1        0.0018
     28 C          64.6164   85.7074   14.4687 C.ar    1  UNL1        0.0146
     29 C          63.7798   86.2339   13.3405 C.ar    1  UNL1        0.0504
@<TRIPOS>BOND
     1    12    13   am
     2    13    14    2
     3    13     1    1
     4     1     2   ar
     5     2     3   ar
     6     3     6    1
     7     6     7    1
     8     7     8    1
     9     8     9    1
    10     9    10    1
    11    10    11    1
    12     3     4   ar
    13     4     5   ar
    14     5    17    1
    15    17    18    1
    16    18    19    2
    17    18    20   am
    18    20    21    1
    19    21    22    1
    20    22    23    1
    21    23    24   ar
    22    24    25    1
    23    24    26   ar
    24    26    27   ar
    25    27    28   ar
    26    28    29   ar
    27     5     1   ar
    28    29    20    1
    29    11     6    1
    30    29    23   ar
    31    12    15    1
    32    12    16    1
@<TRIPOS>MOLECULE
*****
 29 32 0 0 0
SMALL
GASTEIGER

@<TRIPOS>ATOM
      1 C          61.3923   86.8087   10.0302 C.ar    1  UNL1        0.0991
      2 S          61.7207   85.3566   10.2131 S.2     1  UNL1       -0.0473
      3 C          62.3943   85.1977   11.5439 C.ar    1  UNL1        0.1630
      4 N          62.4823   86.5516   12.1835 N.ar    1  UNL1       -0.2278
      5 C          61.8630   87.5473   11.2480 C.ar    1  UNL1        0.0805
      6 N          62.8925   83.9108   12.1318 N.pl3   1  UNL1       -0.2830
      7 C          62.9144   82.6642   11.2980 C.3     1  UNL1        0.1247
      8 C          63.4126   81.3772   11.8859 C.3     1  UNL1        0.1636
      9 O          63.8889   81.3370   13.3078 O.3     1  UNL1       -0.3501
     10 C          63.8670   82.5837   14.1415 C.3     1  UNL1        0.1636
     11 C          63.3688   83.8705   13.5536 C.3     1  UNL1        0.1247
     12 N          60.5095   88.9001    8.7666 N.am    1  UNL1       -0.3249
     13 C          60.7126   87.4157    8.8387 C.2     1  UNL1        0.2500
     14 O          60.2361   86.5382    7.7193 O.2     1  UNL1       -0.2698
     15 H          60.0634   89.2985    7.9846 H       1  UNL1        0.1453
     16 H          60.8222   89.4760    9.5013 H       1  UNL1        0.1453
     17 C          61.7366   89.0225   11.4881 C.3     1  UNL1        0.1319
     18 C          62.7366   89.7298   12.3540 C.2     1  UNL1        0.2354
     19 O          62.9308   89.3020   13.7785 O.2     1  UNL1       -0.2741
     20 N          63.5423   90.8651   11.7953 N.am    1  UNL1       -0.2583
     21 C          63.4582   91.4018   10.3973 C.3     1  UNL1        0.1029
     22 C          64.4375   92.5313   10.2747 C.3     1  UNL1        0.0500
     23 C          65.1270   92.6927   11.5969 C.ar    1  UNL1       -0.0005
     24 C          66.1871   93.6442   12.0666 C.ar    1  UNL1        0.0318
     25 BR         66.7404   94.6740   11.1268 Br      1  UNL1       -0.0493
     26 C          66.6940   93.5660   13.4762 C.ar    1  UNL1        0.0065
     27 C          66.1408   92.5362   14.4162 C.ar    1  UNL1        0.0018
     28 C          65.0806   91.5846   13.9465 C.ar    1  UNL1        0.0146
     29 C          64.5737   91.6628   12.5368 C.ar    1  UNL1        0.0504
@<TRIPOS>BOND
     1    12    13   am
     2    13    14    2
     3    13     1    1
     4     1     2   ar
     5     2     3   ar
     6     3     6    1
     7     6     7    1
     8     7     8    1
     9     8     9    1
    10     9    10    1
    11    10    11    1
    12     3     4   ar
    13     4     5   ar
    14     5    17    1
    15    17    18    1
    16    18    19    2
    17    18    20   am
    18    20    21    1
    19    21    22    1
    20    22    23    1
    21    23    24   ar
    22    24    25    1
    23    24    26   ar
    24    26    27   ar
    25    27    28   ar
    26    28    29   ar
    27     5     1   ar
    28    29    20    1
    29    11     6    1
    30    29    23   ar
    31    12    15    1
    32    12    16    1
@<TRIPOS>MOLECULE
*****
 29 32 0 0 0
SMALL
GASTEIGER

@<TRIPOS>ATOM
      1 C          64.1274   91.0412   13.5394 C.ar    1  UNL1        0.0991
      2 S          65.2067   92.0123   13.1626 S.2     1  UNL1       -0.0473
      3 C          65.2001   92.1565   11.6696 C.ar    1  UNL1        0.1630
      4 N          64.1166   91.2745   11.1235 N.ar    1  UNL1       -0.2278
      5 C          63.4536   90.5853   12.2791 C.ar    1  UNL1        0.0805
      6 N          66.1162   93.0294   10.8640 N.pl3   1  UNL1       -0.2830
      7 C          65.8765   94.5086   10.7978 C.3     1  UNL1        0.1247
      8 C          66.7925   95.3815    9.9923 C.3     1  UNL1        0.1636
      9 O          67.9483   94.7751    9.2529 O.3     1  UNL1       -0.3501
     10 C          68.1880   93.2959    9.3193 C.3     1  UNL1        0.1636
     11 C          67.2719   92.4230   10.1248 C.3     1  UNL1        0.1247
     12 N          63.6686   89.1420   15.2518 N.am    1  UNL1       -0.3249
     13 C          63.7823   90.6030   14.9318 C.2     1  UNL1        0.2500
     14 O          63.5509   91.6259   16.0043 O.2     1  UNL1       -0.2698
     15 H          63.4422   88.8544   16.1657 H       1  UNL1        0.1453
     16 H          63.8205   88.4706   14.5479 H       1  UNL1        0.1453
     17 C          62.3165   89.6110   12.1901 C.3     1  UNL1        0.1319
     18 C          62.4158   88.4237   11.2789 C.2     1  UNL1        0.2354
     19 O          62.0850   88.5659    9.8228 O.2     1  UNL1       -0.2741
     20 N          62.8459   87.0940   11.8239 N.am    1  UNL1       -0.2583
     21 C          63.2069   86.8006   13.2499 C.3     1  UNL1        0.1029
     22 C          63.5746   85.3495   13.3458 C.3     1  UNL1        0.0500
     23 C          63.4409   84.7461   11.9791 C.ar    1  UNL1       -0.0005
     24 C          63.6711   83.3542   11.4696 C.ar    1  UNL1        0.0318
     25 BR         64.1214   82.2761   12.4101 Br      1  UNL1       -0.0493
     26 C          63.4509   83.0404   10.0193 C.ar    1  UNL1        0.0065
     27 C          63.0005   84.1186    9.0787 C.ar    1  UNL1        0.0018
     28 C          62.7704   85.5105    9.5883 C.ar    1  UNL1        0.0146
     29 C          62.9905   85.8243   11.0385 C.ar    1  UNL1        0.0504
@<TRIPOS>BOND
     1    12    13   am
     2    13    14    2
     3    13     1    1
     4     1     2   ar
     5     2     3   ar
     6     3     6    1
     7     6     7    1
     8     7     8    1
     9     8     9    1
    10     9    10    1
    11    10    11    1
    12     3     4   ar
    13     4     5   ar
    14     5    17    1
    15    17    18    1
    16    18    19    2
    17    18    20   am
    18    20    21    1
    19    21    22    1
    20    22    23    1
    21    23    24   ar
    22    24    25    1
    23    24    26   ar
    24    26    27   ar
    25    27    28   ar
    26    28    29   ar
    27     5     1   ar
    28    29    20    1
    29    11     6    1
    30    29    23   ar
    31    12    15    1
    32    12    16    1
@<TRIPOS>MOLECULE
*****
 29 32 0 0 0
SMALL
GASTEIGER

@<TRIPOS>ATOM
      1 C          62.8543   89.0959   12.5213 C.ar    1  UNL1        0.0991
      2 S          61.9643   89.4915   11.3806 S.2     1  UNL1       -0.0473
      3 C          61.5785   88.2455   10.6399 C.ar    1  UNL1        0.1630
      4 N          62.2302   87.0798   11.3228 N.ar    1  UNL1       -0.2278
      5 C          63.0187   87.6053   12.4856 C.ar    1  UNL1        0.0805
      6 N          60.6961   88.1772    9.4288 N.pl3   1  UNL1       -0.2830
      7 C          60.3694   89.4276    8.6675 C.3     1  UNL1        0.1247
      8 C          59.4869   89.3593    7.4564 C.3     1  UNL1        0.1636
      9 O          58.9312   88.0406    7.0068 O.3     1  UNL1       -0.3501
     10 C          59.2579   86.7902    7.7682 C.3     1  UNL1        0.1636
     11 C          60.1404   86.8585    8.9792 C.3     1  UNL1        0.1247
     12 N          62.8982   90.1299   14.9043 N.am    1  UNL1       -0.3249
     13 C          63.4716   90.0272   13.5221 C.2     1  UNL1        0.2500
     14 O          64.6623   90.8559   13.1405 O.2     1  UNL1       -0.2698
     15 H          63.3034   90.7412   15.5612 H       1  UNL1        0.1453
     16 H          62.1167   89.5860   15.1548 H       1  UNL1        0.1453
     17 C          63.8292   86.7844   13.4443 C.3     1  UNL1        0.1319
     18 C          63.3714   85.4080   13.8262 C.2     1  UNL1        0.2354
     19 O          62.8890   85.1380   15.2206 O.2     1  UNL1       -0.2741
     20 N          63.3961   84.3016   12.8137 N.am    1  UNL1       -0.2583
     21 C          63.8497   84.4202   11.3889 C.3     1  UNL1        0.1029
     22 C          63.7054   83.0742   10.7429 C.3     1  UNL1        0.0500
     23 C          63.1626   82.1236   11.7683 C.ar    1  UNL1       -0.0005
     24 C          62.8177   80.6653   11.7021 C.ar    1  UNL1        0.0318
     25 BR         63.0088   79.9068   10.4223 Br      1  UNL1       -0.0493
     26 C          62.2816   79.9656   12.9158 C.ar    1  UNL1        0.0065
     27 C          62.0904   80.7241   14.1957 C.ar    1  UNL1        0.0018
     28 C          62.4353   82.1824   14.2619 C.ar    1  UNL1        0.0146
     29 C          62.9714   82.8822   13.0482 C.ar    1  UNL1        0.0504
@<TRIPOS>BOND
     1    12    13   am
     2    13    14    2
     3    13     1    1
     4     1     2   ar
     5     2     3   ar
     6     3     6    1
     7     6     7    1
     8     7     8    1
     9     8     9    1
    10     9    10    1
    11    10    11    1
    12     3     4   ar
    13     4     5   ar
    14     5    17    1
    15    17    18    1
    16    18    19    2
    17    18    20   am
    18    20    21    1
    19    21    22    1
    20    22    23    1
    21    23    24   ar
    22    24    25    1
    23    24    26   ar
    24    26    27   ar
    25    27    28   ar
    26    28    29   ar
    27     5     1   ar
    28    29    20    1
    29    11     6    1
    30    29    23   ar
    31    12    15    1
    32    12    16    1
@<TRIPOS>MOLECULE
*****
 29 32 0 0 0
SMALL
GASTEIGER

@<TRIPOS>ATOM
      1 C          62.8405   90.9597   11.0115 C.ar    1  UNL1        0.0991
      2 S          63.7349   91.7828   10.1326 S.2     1  UNL1       -0.0473
      3 C          64.9645   92.1305   10.9183 C.ar    1  UNL1        0.1630
      4 N          64.8300   91.5222   12.2828 N.ar    1  UNL1       -0.2278
      5 C          63.5173   90.7987   12.3404 C.ar    1  UNL1        0.0805
      6 N          66.1248   92.9436   10.4259 N.pl3   1  UNL1       -0.2830
      7 C          66.0382   94.4409   10.4098 C.3     1  UNL1        0.1247
      8 C          67.1985   95.2541    9.9174 C.3     1  UNL1        0.1636
      9 O          68.4455   94.5698    9.4410 O.3     1  UNL1       -0.3501
     10 C          68.5320   93.0724    9.4571 C.3     1  UNL1        0.1636
     11 C          67.3717   92.2593    9.9495 C.3     1  UNL1        0.1247
     12 N          60.3045   90.6601   11.4900 N.am    1  UNL1       -0.3249
     13 C          61.5039   90.3965   10.6287 C.2     1  UNL1        0.2500
     14 O          61.3669   89.5698    9.3846 O.2     1  UNL1       -0.2698
     15 H          59.4273   90.2905   11.2388 H       1  UNL1        0.1453
     16 H          60.3944   91.2028   12.3065 H       1  UNL1        0.1453
     17 C          62.9764   90.0461   13.5199 C.3     1  UNL1        0.1319
     18 C          63.5793   88.7292   13.9100 C.2     1  UNL1        0.2354
     19 O          64.4969   88.6457   15.0936 O.2     1  UNL1       -0.2741
     20 N          63.2647   87.4958   13.1164 N.am    1  UNL1       -0.2583
     21 C          62.3696   87.4250   11.9149 C.3     1  UNL1        0.1029
     22 C          62.3416   86.0021   11.4410 C.3     1  UNL1        0.0500
     23 C          63.2194   85.1935   12.3496 C.ar    1  UNL1       -0.0005
     24 C          63.5730   83.7359   12.3678 C.ar    1  UNL1        0.0318
     25 BR         63.0025   82.8127   11.3324 Br      1  UNL1       -0.0493
     26 C          64.4971   83.2015   13.4216 C.ar    1  UNL1        0.0065
     27 C          65.0677   84.1246   14.4571 C.ar    1  UNL1        0.0018
     28 C          64.7141   85.5823   14.4389 C.ar    1  UNL1        0.0146
     29 C          63.7899   86.1168   13.3851 C.ar    1  UNL1        0.0504
@<TRIPOS>BOND
     1    12    13   am
     2    13    14    2
     3    13     1    1
     4     1     2   ar
     5     2     3   ar
     6     3     6    1
     7     6     7    1
     8     7     8    1
     9     8     9    1
    10     9    10    1
    11    10    11    1
    12     3     4   ar
    13     4     5   ar
    14     5    17    1
    15    17    18    1
    16    18    19    2
    17    18    20   am
    18    20    21    1
    19    21    22    1
    20    22    23    1
    21    23    24   ar
    22    24    25    1
    23    24    26   ar
    24    26    27   ar
    25    27    28   ar
    26    28    29   ar
    27     5     1   ar
    28    29    20    1
    29    11     6    1
    30    29    23   ar
    31    12    15    1
    32    12    16    1
