@<TRIPOS>MOLECULE
*****
 34 38 0 0 0
SMALL
GASTEIGER

@<TRIPOS>ATOM
      1 C          63.9278   87.0835   14.8628 C.3     1  UNL1        0.0312
      2 C          64.1537   88.3611   14.1100 C.2     1  UNL1        0.0121
      3 C          65.0958   89.3946   14.6523 C.2     1  UNL1       -0.0081
      4 C          65.3218   90.6721   13.8995 C.2     1  UNL1       -0.0194
      5 C          64.6056   90.9162   12.6043 C.2     1  UNL1        0.0425
      6 C          63.6634   89.8827   12.0620 C.2     1  UNL1        0.2231
      7 N          62.8227   89.8440   10.8203 N.2     1  UNL1       -0.0378
      8 C          62.0771   88.5425   10.8058 C.2     1  UNL1        0.3605
      9 N          62.4571   87.7768   12.0384 N.2     1  UNL1       -0.0547
     10 C          63.4375   88.6051   12.8148 C.3     1  UNL1        0.2975
     11 C          66.2640   91.7057   14.4419 C.3     1  UNL1        0.0252
     12 C          67.3108   91.3148   15.4425 C.3     1  UNL1        0.0217
     13 C          68.2530   92.3483   15.9849 C.3     1  UNL1        0.0725
     14 N          68.1482   93.7728   15.5267 N.3     1  UNL1       -0.2715
     15 C          69.0903   94.8063   16.0690 C.3     1  UNL1        0.0896
     16 C          67.1014   94.1637   14.5261 C.3     1  UNL1        0.0725
     17 C          66.1592   93.1302   13.9837 C.3     1  UNL1        0.0217
     18 C          61.1197   88.0867    9.7449 C.3     1  UNL1        0.2246
     19 C          61.1214   86.6548    9.2981 C.2     1  UNL1        0.0436
     20 C          60.1639   86.1990    8.2372 C.2     1  UNL1        0.0288
     21 C          59.2047   87.1751    7.6231 C.2     1  UNL1        0.0896
     22 N          59.2029   88.6070    8.0698 N.am    1  UNL1       -0.1770
     23 C          60.1605   89.0628    9.1308 C.2     1  UNL1        0.2627
     24 O          60.1587   90.4947    9.5775 O.2     1  UNL1       -0.2719
     25 N          62.0806   85.6786    9.9122 N.pl3   1  UNL1       -0.3335
     26 H          62.0792   85.5335   10.8859 H       1  UNL1        0.1466
     27 C          63.0418   84.9236    9.0428 C.3     1  UNL1        0.1136
     28 C          63.8240   83.7763    9.6100 C.3     1  UNL1        0.1486
     29 N          63.4158   83.1636   10.9169 N.ar    1  UNL1       -0.2468
     30 C          63.1544   81.7075   11.1645 C.ar    1  UNL1        0.1081
     31 C          62.7743   81.5434   12.6063 C.ar    1  UNL1        0.0972
     32 CL         62.4285   80.2514   13.2854 Cl      1  UNL1       -0.0789
     33 C          62.8008   82.8981   13.2497 C.ar    1  UNL1        0.1330
     34 N          63.1972   83.8995   12.2056 N.ar    1  UNL1       -0.1667
@<TRIPOS>BOND
     1     1     2    1
     2     2     3    2
     3     3     4    1
     4     4    11    1
     5    11    12    1
     6    12    13    1
     7    13    14    1
     8    14    15    1
     9    14    16    1
    10    16    17    1
    11     4     5    2
    12     5     6    1
    13     6     7    2
    14     7     8    1
    15     8    18    1
    16    18    19    1
    17    19    25    1
    18    25    27    1
    19    27    28    1
    20    28    29    1
    21    29    30   ar
    22    30    31   ar
    23    31    32    1
    24    31    33   ar
    25    33    34   ar
    26    19    20    2
    27    20    21    1
    28    21    22    2
    29    22    23    1
    30    23    24    2
    31     8     9    2
    32     9    10    1
    33    10     2    1
    34    17    11    1
    35    10     6    1
    36    23    18    1
    37    34    29   ar
    38    25    26    1
@<TRIPOS>MOLECULE
*****
 34 38 0 0 0
SMALL
GASTEIGER

@<TRIPOS>ATOM
      1 C          61.8152   88.3560   10.2325 C.3     1  UNL1        0.0312
      2 C          62.4361   87.4575   11.2607 C.2     1  UNL1        0.0121
      3 C          62.3707   85.9683   11.0930 C.2     1  UNL1       -0.0081
      4 C          62.9916   85.0699   12.1211 C.2     1  UNL1       -0.0194
      5 C          63.6779   85.6605   13.3171 C.2     1  UNL1        0.0425
      6 C          63.7433   87.1496   13.4848 C.2     1  UNL1        0.2231
      7 N          64.3479   88.0139   14.5513 N.2     1  UNL1       -0.0378
      8 C          64.1006   89.4466   14.1822 C.2     1  UNL1        0.3605
      9 N          63.3432   89.4678   12.8876 N.2     1  UNL1       -0.0547
     10 C          63.1223   88.0481   12.4566 C.3     1  UNL1        0.2975
     11 C          62.9262   83.5806   11.9534 C.3     1  UNL1        0.0252
     12 C          63.4086   82.9471   10.6822 C.3     1  UNL1        0.0217
     13 C          63.3433   81.4580   10.5145 C.3     1  UNL1        0.0725
     14 N          62.7955   80.6023   11.6180 N.3     1  UNL1       -0.2715
     15 C          62.7302   79.1132   11.4503 C.3     1  UNL1        0.0896
     16 C          62.3131   81.2358   12.8892 C.3     1  UNL1        0.0725
     17 C          62.3785   82.7249   13.0569 C.3     1  UNL1        0.0217
     18 C          64.5345   90.6474   14.9694 C.3     1  UNL1        0.2246
     19 C          65.5920   91.5603   14.4232 C.2     1  UNL1        0.0436
     20 C          66.0259   92.7611   15.2105 C.2     1  UNL1        0.0288
     21 C          65.4024   93.0490   16.5441 C.2     1  UNL1        0.0896
     22 N          64.3449   92.1362   17.0903 N.am    1  UNL1       -0.1770
     23 C          63.9110   90.9354   16.3029 C.2     1  UNL1        0.2627
     24 O          62.8535   90.0225   16.8492 O.2     1  UNL1       -0.2719
     25 N          66.2156   91.2725   13.0897 N.pl3   1  UNL1       -0.3335
     26 H          66.0637   90.4035   12.6526 H       1  UNL1        0.1466
     27 C          67.0706   92.3085   12.4222 C.3     1  UNL1        0.1136
     28 C          66.9022   92.5903   10.9586 C.3     1  UNL1        0.1486
     29 N          66.8935   94.0062   10.4636 N.ar    1  UNL1       -0.2468
     30 C          67.4437   94.4854    9.1530 C.ar    1  UNL1        0.1081
     31 C          67.2233   95.9669    9.0717 C.ar    1  UNL1        0.0972
     32 CL         67.6197   96.8560    7.9304 Cl      1  UNL1       -0.0789
     33 C          66.5369   96.4034   10.3319 C.ar    1  UNL1        0.1330
     34 N          66.3331   95.1916   11.1922 N.ar    1  UNL1       -0.1667
@<TRIPOS>BOND
     1     1     2    1
     2     2     3    2
     3     3     4    1
     4     4    11    1
     5    11    12    1
     6    12    13    1
     7    13    14    1
     8    14    15    1
     9    14    16    1
    10    16    17    1
    11     4     5    2
    12     5     6    1
    13     6     7    2
    14     7     8    1
    15     8    18    1
    16    18    19    1
    17    19    25    1
    18    25    27    1
    19    27    28    1
    20    28    29    1
    21    29    30   ar
    22    30    31   ar
    23    31    32    1
    24    31    33   ar
    25    33    34   ar
    26    19    20    2
    27    20    21    1
    28    21    22    2
    29    22    23    1
    30    23    24    2
    31     8     9    2
    32     9    10    1
    33    10     2    1
    34    17    11    1
    35    10     6    1
    36    23    18    1
    37    34    29   ar
    38    25    26    1
@<TRIPOS>MOLECULE
*****
 34 38 0 0 0
SMALL
GASTEIGER

@<TRIPOS>ATOM
      1 C          59.0671   90.0766   11.9941 C.3     1  UNL1        0.0312
      2 C          60.3073   89.3809   11.5166 C.2     1  UNL1        0.0121
      3 C          60.2246   88.3829   10.3998 C.2     1  UNL1       -0.0081
      4 C          61.4647   87.6872    9.9223 C.2     1  UNL1       -0.0194
      5 C          62.7876   87.9894   10.5617 C.2     1  UNL1        0.0425
      6 C          62.8703   88.9873   11.6785 C.2     1  UNL1        0.2231
      7 N          64.0253   89.4862   12.4952 N.2     1  UNL1       -0.0378
      8 C          63.4990   90.4902   13.4775 C.2     1  UNL1        0.3605
      9 N          62.0187   90.6119   13.2678 N.2     1  UNL1       -0.0547
     10 C          61.6301   89.6831   12.1559 C.3     1  UNL1        0.2975
     11 C          61.3820   86.6892    8.8055 C.3     1  UNL1        0.0252
     12 C          60.0950   86.5063    8.0569 C.3     1  UNL1        0.0217
     13 C          60.0123   85.5083    6.9401 C.3     1  UNL1        0.0725
     14 N          61.2165   84.6934    6.5718 N.3     1  UNL1       -0.2715
     15 C          61.1339   83.6955    5.4551 C.3     1  UNL1        0.0896
     16 C          62.5035   84.8764    7.3204 C.3     1  UNL1        0.0725
     17 C          62.5862   85.8743    8.4372 C.3     1  UNL1        0.0217
     18 C          64.3105   91.2409   14.4914 C.3     1  UNL1        0.2246
     19 C          65.4481   92.1112   14.0461 C.2     1  UNL1        0.0436
     20 C          66.2596   92.8618   15.0601 C.2     1  UNL1        0.0288
     21 C          65.9334   92.7421   16.5193 C.2     1  UNL1        0.0896
     22 N          64.7957   91.8719   16.9646 N.am    1  UNL1       -0.1770
     23 C          63.9843   91.1212   15.9506 C.2     1  UNL1        0.2627
     24 O          62.8466   90.2510   16.3958 O.2     1  UNL1       -0.2719
     25 N          65.7744   92.2309   12.5870 N.pl3   1  UNL1       -0.3335
     26 H          65.0745   92.4925   11.9459 H       1  UNL1        0.1466
     27 C          67.1670   91.9521   12.1045 C.3     1  UNL1        0.1136
     28 C          67.6014   92.4300   10.7506 C.3     1  UNL1        0.1486
     29 N          67.3453   93.8493   10.3385 N.ar    1  UNL1       -0.2468
     30 C          67.6203   94.4381    8.9866 C.ar    1  UNL1        0.1081
     31 C          67.2142   95.8818    9.0186 C.ar    1  UNL1        0.0972
     32 CL         67.3162   96.8518    7.8790 Cl      1  UNL1       -0.0789
     33 C          66.6883   96.1852   10.3901 C.ar    1  UNL1        0.1330
     34 N          66.7693   94.9290   11.2060 N.ar    1  UNL1       -0.1667
@<TRIPOS>BOND
     1     1     2    1
     2     2     3    2
     3     3     4    1
     4     4    11    1
     5    11    12    1
     6    12    13    1
     7    13    14    1
     8    14    15    1
     9    14    16    1
    10    16    17    1
    11     4     5    2
    12     5     6    1
    13     6     7    2
    14     7     8    1
    15     8    18    1
    16    18    19    1
    17    19    25    1
    18    25    27    1
    19    27    28    1
    20    28    29    1
    21    29    30   ar
    22    30    31   ar
    23    31    32    1
    24    31    33   ar
    25    33    34   ar
    26    19    20    2
    27    20    21    1
    28    21    22    2
    29    22    23    1
    30    23    24    2
    31     8     9    2
    32     9    10    1
    33    10     2    1
    34    17    11    1
    35    10     6    1
    36    23    18    1
    37    34    29   ar
    38    25    26    1
@<TRIPOS>MOLECULE
*****
 34 38 0 0 0
SMALL
GASTEIGER

@<TRIPOS>ATOM
      1 C          58.8750   89.2814   12.3180 C.3     1  UNL1        0.0312
      2 C          60.1520   88.8109   11.6871 C.2     1  UNL1        0.0121
      3 C          60.1096   87.8722   10.5180 C.2     1  UNL1       -0.0081
      4 C          61.3865   87.4018    9.8872 C.2     1  UNL1       -0.0194
      5 C          62.7061   87.8700   10.4255 C.2     1  UNL1        0.0425
      6 C          62.7485   88.8088   11.5947 C.2     1  UNL1        0.2231
      7 N          63.8909   89.4359   12.3373 N.2     1  UNL1       -0.0378
      8 C          63.3199   90.2940   13.4271 C.2     1  UNL1        0.3605
      9 N          61.8246   90.1971   13.3580 N.2     1  UNL1       -0.0547
     10 C          61.4715   89.2792   12.2255 C.3     1  UNL1        0.2975
     11 C          61.3441   86.4630    8.7179 C.3     1  UNL1        0.0252
     12 C          62.5798   85.7172    8.3097 C.3     1  UNL1        0.0217
     13 C          62.5374   84.7784    7.1405 C.3     1  UNL1        0.0725
     14 N          61.2593   84.5856    6.3796 N.3     1  UNL1       -0.2715
     15 C          61.2168   83.6469    5.2104 C.3     1  UNL1        0.0896
     16 C          60.0235   85.3315    6.7878 C.3     1  UNL1        0.0725
     17 C          60.0659   86.2702    7.9569 C.3     1  UNL1        0.0217
     18 C          64.1062   91.1063   14.4130 C.3     1  UNL1        0.2246
     19 C          63.8416   90.9638   15.8826 C.2     1  UNL1        0.0436
     20 C          64.6280   91.7762   16.8684 C.2     1  UNL1        0.0288
     21 C          65.6788   92.7310   16.3847 C.2     1  UNL1        0.0896
     22 N          65.9434   92.8735   14.9151 N.am    1  UNL1       -0.1770
     23 C          65.1570   92.0612   13.9293 C.2     1  UNL1        0.2627
     24 O          65.4216   92.2037   12.4597 O.2     1  UNL1       -0.2719
     25 N          62.7908   90.0090   16.3664 N.pl3   1  UNL1       -0.3335
     26 H          61.8554   90.3054   16.4457 H       1  UNL1        0.1466
     27 C          63.1652   88.6026   16.7293 C.3     1  UNL1        0.1136
     28 C          63.9824   87.7756   15.7815 C.3     1  UNL1        0.1486
     29 N          63.6404   86.3322   15.5591 N.ar    1  UNL1       -0.2468
     30 C          64.3417   85.3942   14.6219 C.ar    1  UNL1        0.1081
     31 C          63.6718   84.0556   14.7185 C.ar    1  UNL1        0.0972
     32 CL         64.0507   82.8227   13.9526 Cl      1  UNL1       -0.0789
     33 C          62.5565   84.1662   15.7153 C.ar    1  UNL1        0.1330
     34 N          62.5371   85.5732   16.2349 N.ar    1  UNL1       -0.1667
@<TRIPOS>BOND
     1     1     2    1
     2     2     3    2
     3     3     4    1
     4     4    11    1
     5    11    12    1
     6    12    13    1
     7    13    14    1
     8    14    15    1
     9    14    16    1
    10    16    17    1
    11     4     5    2
    12     5     6    1
    13     6     7    2
    14     7     8    1
    15     8    18    1
    16    18    19    1
    17    19    25    1
    18    25    27    1
    19    27    28    1
    20    28    29    1
    21    29    30   ar
    22    30    31   ar
    23    31    32    1
    24    31    33   ar
    25    33    34   ar
    26    19    20    2
    27    20    21    1
    28    21    22    2
    29    22    23    1
    30    23    24    2
    31     8     9    2
    32     9    10    1
    33    10     2    1
    34    17    11    1
    35    10     6    1
    36    23    18    1
    37    34    29   ar
    38    25    26    1
@<TRIPOS>MOLECULE
*****
 34 38 0 0 0
SMALL
GASTEIGER

@<TRIPOS>ATOM
      1 C          62.8171   87.6632   17.6292 C.3     1  UNL1        0.0312
      2 C          63.3666   87.9195   16.2573 C.2     1  UNL1        0.0121
      3 C          63.8749   89.2837   15.8958 C.2     1  UNL1       -0.0081
      4 C          64.4245   89.5400   14.5239 C.2     1  UNL1       -0.0194
      5 C          64.4658   88.4322   13.5134 C.2     1  UNL1        0.0425
      6 C          63.9575   87.0680   13.8749 C.2     1  UNL1        0.2231
      7 N          63.8710   85.7899   13.0946 N.2     1  UNL1       -0.0378
      8 C          63.2679   84.7437   13.9843 C.2     1  UNL1        0.3605
      9 N          62.9817   85.3751   15.3145 N.2     1  UNL1       -0.0547
     10 C          63.4080   86.8117   15.2468 C.3     1  UNL1        0.2975
     11 C          64.9328   90.9043   14.1624 C.3     1  UNL1        0.0252
     12 C          65.6181   91.7476   15.1964 C.3     1  UNL1        0.0217
     13 C          66.1264   93.1118   14.8349 C.3     1  UNL1        0.0725
     14 N          65.9493   93.6326   13.4394 N.3     1  UNL1       -0.2715
     15 C          66.4575   94.9968   13.0778 C.3     1  UNL1        0.0896
     16 C          65.2639   92.7893   12.4054 C.3     1  UNL1        0.0725
     17 C          64.7557   91.4251   12.7669 C.3     1  UNL1        0.0217
     18 C          62.9983   83.3164   13.6096 C.3     1  UNL1        0.2246
     19 C          62.6750   82.9624   12.1883 C.2     1  UNL1        0.0436
     20 C          62.4054   81.5351   11.8137 C.2     1  UNL1        0.0288
     21 C          62.4591   80.4619   12.8604 C.2     1  UNL1        0.0896
     22 N          62.7824   80.8160   14.2817 N.am    1  UNL1       -0.1770
     23 C          63.0520   82.2433   14.6562 C.2     1  UNL1        0.2627
     24 O          63.3753   82.5974   16.0775 O.2     1  UNL1       -0.2719
     25 N          62.6213   84.0354   11.1416 N.pl3   1  UNL1       -0.3335
     26 H          62.0012   84.7931   11.2448 H       1  UNL1        0.1466
     27 C          63.5123   83.9542    9.9377 C.3     1  UNL1        0.1136
     28 C          63.1741   84.7319    8.7005 C.3     1  UNL1        0.1486
     29 N          62.1753   85.8490    8.7665 N.ar    1  UNL1       -0.2468
     30 C          60.9907   86.0270    7.8637 C.ar    1  UNL1        0.1081
     31 C          60.2691   87.2724    8.2862 C.ar    1  UNL1        0.0972
     32 CL         59.0269   87.8285    7.6555 Cl      1  UNL1       -0.0789
     33 C          61.0076   87.8640    9.4500 C.ar    1  UNL1        0.1330
     34 N          62.1858   86.9843    9.7469 N.ar    1  UNL1       -0.1667
@<TRIPOS>BOND
     1     1     2    1
     2     2     3    2
     3     3     4    1
     4     4    11    1
     5    11    12    1
     6    12    13    1
     7    13    14    1
     8    14    15    1
     9    14    16    1
    10    16    17    1
    11     4     5    2
    12     5     6    1
    13     6     7    2
    14     7     8    1
    15     8    18    1
    16    18    19    1
    17    19    25    1
    18    25    27    1
    19    27    28    1
    20    28    29    1
    21    29    30   ar
    22    30    31   ar
    23    31    32    1
    24    31    33   ar
    25    33    34   ar
    26    19    20    2
    27    20    21    1
    28    21    22    2
    29    22    23    1
    30    23    24    2
    31     8     9    2
    32     9    10    1
    33    10     2    1
    34    17    11    1
    35    10     6    1
    36    23    18    1
    37    34    29   ar
    38    25    26    1
@<TRIPOS>MOLECULE
*****
 34 38 0 0 0
SMALL
GASTEIGER

@<TRIPOS>ATOM
      1 C          63.1096   87.8979   17.7330 C.3     1  UNL1        0.0312
      2 C          63.3760   87.3941   16.3454 C.2     1  UNL1        0.0121
      3 C          63.1249   85.9541   16.0093 C.2     1  UNL1       -0.0081
      4 C          63.3913   85.4503   14.6218 C.2     1  UNL1       -0.0194
      5 C          63.9089   86.3867   13.5704 C.2     1  UNL1        0.0425
      6 C          64.1600   87.8268   13.9066 C.2     1  UNL1        0.2231
      7 N          64.6644   88.9760   13.0850 N.2     1  UNL1       -0.0378
      8 C          64.7097   90.1900   13.9649 C.2     1  UNL1        0.3605
      9 N          64.2333   89.7911   15.3302 N.2     1  UNL1       -0.0547
     10 C          63.8935   88.3305   15.2941 C.3     1  UNL1        0.2975
     11 C          63.1402   84.0101   14.2856 C.3     1  UNL1        0.0252
     12 C          64.0774   83.2792   13.3705 C.3     1  UNL1        0.0217
     13 C          63.8263   81.8391   13.0343 C.3     1  UNL1        0.0725
     14 N          62.6380   81.1299   13.6132 N.3     1  UNL1       -0.2715
     15 C          62.3869   79.6898   13.2771 C.3     1  UNL1        0.0896
     16 C          61.7008   81.8609   14.5283 C.3     1  UNL1        0.0725
     17 C          61.9519   83.3010   14.8645 C.3     1  UNL1        0.0217
     18 C          65.1534   91.5621   13.5520 C.3     1  UNL1        0.2246
     19 C          64.9400   92.0267   12.1418 C.2     1  UNL1        0.0436
     20 C          65.3838   93.3988   11.7290 C.2     1  UNL1        0.0288
     21 C          66.0411   94.3063   12.7263 C.2     1  UNL1        0.0896
     22 N          66.2545   93.8417   14.1364 N.am    1  UNL1       -0.1770
     23 C          65.8107   92.4695   14.5493 C.2     1  UNL1        0.2627
     24 O          66.0241   92.0049   15.9594 O.2     1  UNL1       -0.2719
     25 N          64.2828   91.1193   11.1445 N.pl3   1  UNL1       -0.3335
     26 H          64.8137   90.4340   10.6779 H       1  UNL1        0.1466
     27 C          62.8167   91.2560   10.8582 C.3     1  UNL1        0.1136
     28 C          61.8348   90.3325   11.5162 C.3     1  UNL1        0.1486
     29 N          61.7094   88.9133   11.0470 N.ar    1  UNL1       -0.2468
     30 C          62.4339   88.3018    9.8847 C.ar    1  UNL1        0.1081
     31 C          62.0098   86.8669    9.7771 C.ar    1  UNL1        0.0972
     32 CL         62.4883   85.8805    8.7534 Cl      1  UNL1       -0.0789
     33 C          61.0232   86.5918   10.8729 C.ar    1  UNL1        0.1330
     34 N          60.8375   87.8566   11.6578 N.ar    1  UNL1       -0.1667
@<TRIPOS>BOND
     1     1     2    1
     2     2     3    2
     3     3     4    1
     4     4    11    1
     5    11    12    1
     6    12    13    1
     7    13    14    1
     8    14    15    1
     9    14    16    1
    10    16    17    1
    11     4     5    2
    12     5     6    1
    13     6     7    2
    14     7     8    1
    15     8    18    1
    16    18    19    1
    17    19    25    1
    18    25    27    1
    19    27    28    1
    20    28    29    1
    21    29    30   ar
    22    30    31   ar
    23    31    32    1
    24    31    33   ar
    25    33    34   ar
    26    19    20    2
    27    20    21    1
    28    21    22    2
    29    22    23    1
    30    23    24    2
    31     8     9    2
    32     9    10    1
    33    10     2    1
    34    17    11    1
    35    10     6    1
    36    23    18    1
    37    34    29   ar
    38    25    26    1
