@<TRIPOS>MOLECULE
*****
 38 44 0 0 0
SMALL
GASTEIGER

@<TRIPOS>ATOM
      1 C          59.2568   90.2727    5.7988 C.2     1  UNL1        0.1040
      2 N          57.8761   90.8586    5.8168 N.2     1  UNL1       -0.1483
      3 N          57.8345   91.9780    4.8192 N.2     1  UNL1       -0.1520
      4 C          59.1896   92.0840    4.1847 C.2     1  UNL1        0.0860
      5 C          59.7366   93.0041    3.1340 C.3     1  UNL1        0.0697
      6 C          61.1627   92.8702    2.6886 C.2     1  UNL1       -0.0378
      7 C          62.0417   91.8162    3.2940 C.2     1  UNL1       -0.0080
      8 C          61.4947   90.8961    4.3448 C.2     1  UNL1        0.0022
      9 C          60.0686   91.0301    4.7902 C.2     1  UNL1        0.0350
     10 C          61.7098   93.7903    1.6377 C.3     1  UNL1        0.0315
     11 C          62.4971   95.0103    1.2616 C.3     1  UNL1        0.0179
     12 C          61.8699   94.1638    0.1938 C.3     1  UNL1        0.0927
     13 C          61.0744   93.0163   -0.3542 C.2     1  UNL1        0.2293
     14 O          60.4089   91.9403    0.4517 O.2     1  UNL1       -0.2744
     15 N          61.0613   93.1336   -1.8495 N.am    1  UNL1       -0.2839
     16 C          61.8487   94.3537   -2.2257 C.ar    1  UNL1        0.0467
     17 C          62.1751   94.9671   -3.5550 C.ar    1  UNL1        0.0144
     18 C          63.0014   96.2172   -3.6214 C.ar    1  UNL1        0.0013
     19 C          63.5011   96.8539   -2.3586 C.ar    1  UNL1       -0.0002
     20 C          63.1747   96.2405   -1.0293 C.ar    1  UNL1       -0.0026
     21 C          62.3484   94.9904   -0.9628 C.ar    1  UNL1       -0.0008
     22 H          60.6144   92.5180   -2.4744 H       1  UNL1        0.1549
     23 C          60.1332   89.3652    8.0700 C.2     1  UNL1        0.0016
     24 C          59.7408   89.1300    6.6415 C.2     1  UNL1        0.0209
     25 C          61.5850   85.9373   10.5981 C.ar    1  UNL1       -0.0061
     26 C          61.5935   85.8224    9.1026 C.ar    1  UNL1       -0.0029
     27 C          61.1095   86.9651    8.2598 C.ar    1  UNL1       -0.0003
     28 C          60.6172   88.2226    8.9127 C.ar    1  UNL1        0.0000
     29 C          60.6087   88.3374   10.4083 C.ar    1  UNL1       -0.0003
     30 C          61.0926   87.1948   11.2510 C.ar    1  UNL1       -0.0029
     31 C          62.0690   84.7946   11.4409 C.3     1  UNL1        0.0992
     32 C          63.8362   85.7718   17.0908 C.3     1  UNL1        0.0897
     33 N          63.3944   85.5275   15.6783 N.3     1  UNL1       -0.2691
     34 C          62.4228   84.4252   15.3764 C.3     1  UNL1        0.0897
     35 C          61.9810   84.1809   13.9639 C.3     1  UNL1        0.0899
     36 N          62.5108   85.0389   12.8534 N.3     1  UNL1       -0.2665
     37 C          63.4823   86.1411   13.1553 C.3     1  UNL1        0.0899
     38 C          63.9241   86.3854   14.5678 C.3     1  UNL1        0.0897
@<TRIPOS>BOND
     1    32    33    1
     2    33    34    1
     3    34    35    1
     4    35    36    1
     5    36    31    1
     6    31    25    1
     7    25    26   ar
     8    26    27   ar
     9    27    28   ar
    10    28    23    1
    11    23    24    2
    12    24     1    1
    13     1     2    2
    14     2     3    1
    15     3     4    2
    16     4     5    1
    17     5     6    1
    18    10     6    1
    19    10    11    1
    20    12    11    1
    21    12    13    1
    22    13    14    2
    23    13    15   am
    24    15    16    1
    25    16    17   ar
    26    17    18   ar
    27    18    19   ar
    28    19    20   ar
    29    20    21   ar
    30     6     7    2
    31     7     8    1
    32     8     9    2
    33    28    29   ar
    34    29    30   ar
    35    36    37    1
    36    37    38    1
    37    38    33    1
    38    30    25   ar
    39     9     1    1
    40     9     4    1
    41    12    10    1
    42    21    16   ar
    43    21    12    1
    44    15    22    1
@<TRIPOS>MOLECULE
*****
 38 44 0 0 0
SMALL
GASTEIGER

@<TRIPOS>ATOM
      1 C          60.2012   91.8637    3.9880 C.2     1  UNL1        0.1040
      2 N          58.8391   92.2950    3.5312 N.2     1  UNL1       -0.1483
      3 N          59.0065   93.1245    2.2928 N.2     1  UNL1       -0.1520
      4 C          60.4722   93.2059    1.9841 C.2     1  UNL1        0.0860
      5 C          61.2298   93.8889    0.8844 C.3     1  UNL1        0.0697
      6 C          62.7258   93.7927    0.8323 C.2     1  UNL1       -0.0378
      7 C          63.4641   93.0134    1.8800 C.2     1  UNL1       -0.0080
      8 C          62.7065   92.3304    2.9798 C.2     1  UNL1        0.0022
      9 C          61.2105   92.4266    3.0318 C.2     1  UNL1        0.0350
     10 C          63.4836   94.4757   -0.2674 C.3     1  UNL1        0.0315
     11 C          64.4430   95.5364   -0.7194 C.3     1  UNL1        0.0179
     12 C          63.8365   94.5980   -1.7202 C.3     1  UNL1        0.0927
     13 C          62.9743   93.4628   -2.1871 C.2     1  UNL1        0.2293
     14 O          62.1070   92.5996   -1.3194 O.2     1  UNL1       -0.2744
     15 N          63.1316   93.3425   -3.6739 N.am    1  UNL1       -0.2839
     16 C          64.0910   94.4032   -4.1260 C.ar    1  UNL1        0.0467
     17 C          64.6242   94.7628   -5.4811 C.ar    1  UNL1        0.0144
     18 C          65.5931   95.8983   -5.6287 C.ar    1  UNL1        0.0013
     19 C          66.0287   96.6742   -4.4212 C.ar    1  UNL1       -0.0002
     20 C          65.4956   96.3147   -3.0661 C.ar    1  UNL1       -0.0026
     21 C          64.5267   95.1792   -2.9185 C.ar    1  UNL1       -0.0008
     22 H          62.6837   92.6830   -4.2517 H       1  UNL1        0.1549
     23 C          59.3903   90.3029    5.9002 C.2     1  UNL1        0.0016
     24 C          60.5013   91.0178    5.1899 C.2     1  UNL1        0.0209
     25 C          60.2907   87.7656    9.5059 C.ar    1  UNL1       -0.0061
     26 C          59.5311   87.1842    8.3505 C.ar    1  UNL1       -0.0029
     27 C          59.2310   88.0300    7.1485 C.ar    1  UNL1       -0.0003
     28 C          59.6904   89.4572    7.1021 C.ar    1  UNL1        0.0000
     29 C          60.4500   90.0385    8.2576 C.ar    1  UNL1       -0.0003
     30 C          60.7501   89.1928    9.4595 C.ar    1  UNL1       -0.0029
     31 C          60.5908   86.9198   10.7079 C.3     1  UNL1        0.0992
     32 C          64.7356   82.5945   10.3733 C.3     1  UNL1        0.0897
     33 N          63.6994   83.6759   10.4569 N.3     1  UNL1       -0.2691
     34 C          63.0201   83.9643   11.7629 C.3     1  UNL1        0.0897
     35 C          61.9839   85.0456   11.8465 C.3     1  UNL1        0.0899
     36 N          61.6270   85.8385   10.6243 N.3     1  UNL1       -0.2665
     37 C          62.3063   85.5501    9.3184 C.3     1  UNL1        0.0899
     38 C          63.3425   84.4688    9.2347 C.3     1  UNL1        0.0897
@<TRIPOS>BOND
     1    32    33    1
     2    33    34    1
     3    34    35    1
     4    35    36    1
     5    36    31    1
     6    31    25    1
     7    25    26   ar
     8    26    27   ar
     9    27    28   ar
    10    28    23    1
    11    23    24    2
    12    24     1    1
    13     1     2    2
    14     2     3    1
    15     3     4    2
    16     4     5    1
    17     5     6    1
    18    10     6    1
    19    10    11    1
    20    12    11    1
    21    12    13    1
    22    13    14    2
    23    13    15   am
    24    15    16    1
    25    16    17   ar
    26    17    18   ar
    27    18    19   ar
    28    19    20   ar
    29    20    21   ar
    30     6     7    2
    31     7     8    1
    32     8     9    2
    33    28    29   ar
    34    29    30   ar
    35    36    37    1
    36    37    38    1
    37    38    33    1
    38    30    25   ar
    39     9     1    1
    40     9     4    1
    41    12    10    1
    42    21    16   ar
    43    21    12    1
    44    15    22    1
@<TRIPOS>MOLECULE
*****
 38 44 0 0 0
SMALL
GASTEIGER

@<TRIPOS>ATOM
      1 C          59.3712   90.2707    5.9443 C.2     1  UNL1        0.1040
      2 N          57.9062   90.5908    5.9086 N.2     1  UNL1       -0.1483
      3 N          57.6767   91.5902    4.8138 N.2     1  UNL1       -0.1520
      4 C          58.9999   91.8877    4.1729 C.2     1  UNL1        0.0860
      5 C          59.3864   92.7959    3.0434 C.3     1  UNL1        0.0697
      6 C          60.8202   92.8885    2.6126 C.2     1  UNL1       -0.0378
      7 C          61.8675   92.0730    3.3114 C.2     1  UNL1       -0.0080
      8 C          61.4810   91.1648    4.4409 C.2     1  UNL1        0.0022
      9 C          60.0471   91.0722    4.8717 C.2     1  UNL1        0.0350
     10 C          61.2068   93.7967    1.4831 C.3     1  UNL1        0.0315
     11 C          61.8094   95.0815    0.9973 C.3     1  UNL1        0.0179
     12 C          61.2739   94.0848    0.0125 C.3     1  UNL1        0.0927
     13 C          60.6274   92.8048   -0.4276 C.2     1  UNL1        0.2293
     14 O          60.1379   91.7092    0.4725 O.2     1  UNL1       -0.2744
     15 N          60.5563   92.8127   -1.9259 N.am    1  UNL1       -0.2839
     16 C          61.1589   94.0976   -2.4118 C.ar    1  UNL1        0.0467
     17 C          61.3611   94.6533   -3.7903 C.ar    1  UNL1        0.0144
     18 C          62.0067   95.9951   -3.9707 C.ar    1  UNL1        0.0013
     19 C          62.4501   96.7813   -2.7727 C.ar    1  UNL1       -0.0002
     20 C          62.2480   96.2256   -1.3942 C.ar    1  UNL1       -0.0026
     21 C          61.6024   94.8838   -1.2137 C.ar    1  UNL1       -0.0008
     22 H          60.1802   92.0998   -2.4912 H       1  UNL1        0.1549
     23 C          60.1294   89.6429    8.3487 C.2     1  UNL1        0.0016
     24 C          60.0424   89.3165    6.8873 C.2     1  UNL1        0.0209
     25 C          62.1430   86.7803   11.1774 C.ar    1  UNL1       -0.0061
     26 C          62.5555   88.2222   11.1498 C.ar    1  UNL1       -0.0029
     27 C          61.8843   89.1764   10.2069 C.ar    1  UNL1       -0.0003
     28 C          60.8006   88.6887    9.2916 C.ar    1  UNL1        0.0000
     29 C          60.3880   87.2468    9.3193 C.ar    1  UNL1       -0.0003
     30 C          61.0592   86.2926   10.2621 C.ar    1  UNL1       -0.0029
     31 C          62.8141   85.8261   12.1203 C.3     1  UNL1        0.0992
     32 C          63.2384   80.0108   10.7057 C.3     1  UNL1        0.0897
     33 N          63.1323   81.4646   11.0593 N.3     1  UNL1       -0.2691
     34 C          62.4924   81.8774   12.3517 C.3     1  UNL1        0.0897
     35 C          62.3863   83.3312   12.7053 C.3     1  UNL1        0.0899
     36 N          62.9202   84.3723   11.7667 N.3     1  UNL1       -0.2665
     37 C          63.5602   83.9596   10.4744 C.3     1  UNL1        0.0899
     38 C          63.6663   82.5057   10.1207 C.3     1  UNL1        0.0897
@<TRIPOS>BOND
     1    32    33    1
     2    33    34    1
     3    34    35    1
     4    35    36    1
     5    36    31    1
     6    31    25    1
     7    25    26   ar
     8    26    27   ar
     9    27    28   ar
    10    28    23    1
    11    23    24    2
    12    24     1    1
    13     1     2    2
    14     2     3    1
    15     3     4    2
    16     4     5    1
    17     5     6    1
    18    10     6    1
    19    10    11    1
    20    12    11    1
    21    12    13    1
    22    13    14    2
    23    13    15   am
    24    15    16    1
    25    16    17   ar
    26    17    18   ar
    27    18    19   ar
    28    19    20   ar
    29    20    21   ar
    30     6     7    2
    31     7     8    1
    32     8     9    2
    33    28    29   ar
    34    29    30   ar
    35    36    37    1
    36    37    38    1
    37    38    33    1
    38    30    25   ar
    39     9     1    1
    40     9     4    1
    41    12    10    1
    42    21    16   ar
    43    21    12    1
    44    15    22    1
@<TRIPOS>MOLECULE
*****
 38 44 0 0 0
SMALL
GASTEIGER

@<TRIPOS>ATOM
      1 C          58.7898   89.7242    6.4221 C.2     1  UNL1        0.1040
      2 N          57.3297   90.0415    6.2896 N.2     1  UNL1       -0.1483
      3 N          57.1795   91.1043    5.2418 N.2     1  UNL1       -0.1520
      4 C          58.5468   91.4438    4.7267 C.2     1  UNL1        0.0860
      5 C          59.0141   92.4195    3.6877 C.3     1  UNL1        0.0697
      6 C          60.4767   92.5422    3.3781 C.2     1  UNL1       -0.0378
      7 C          61.4719   91.6893    4.1076 C.2     1  UNL1       -0.0080
      8 C          61.0046   90.7137    5.1466 C.2     1  UNL1        0.0022
      9 C          59.5420   90.5909    5.4562 C.2     1  UNL1        0.0350
     10 C          60.9441   93.5180    2.3390 C.3     1  UNL1        0.0315
     11 C          60.6507   94.6293    1.3754 C.3     1  UNL1        0.0179
     12 C          62.0470   94.0965    1.5030 C.3     1  UNL1        0.0927
     13 C          63.1325   93.2128    2.0423 C.2     1  UNL1        0.2293
     14 O          62.9656   92.1476    3.0852 O.2     1  UNL1       -0.2744
     15 N          64.4141   93.5813    1.3555 N.am    1  UNL1       -0.2839
     16 C          64.1207   94.6927    0.3918 C.ar    1  UNL1        0.0467
     17 C          64.9967   95.4560   -0.5569 C.ar    1  UNL1        0.0144
     18 C          64.4097   96.5376   -1.4144 C.ar    1  UNL1        0.0013
     19 C          62.9467   96.8560   -1.3233 C.ar    1  UNL1       -0.0002
     20 C          62.0707   96.0928   -0.3746 C.ar    1  UNL1       -0.0026
     21 C          62.6577   95.0111    0.4830 C.ar    1  UNL1       -0.0008
     22 H          65.2935   93.1665    1.5101 H       1  UNL1        0.1549
     23 C          60.4585   89.1357    8.3245 C.2     1  UNL1        0.0016
     24 C          59.3920   88.7170    7.3565 C.2     1  UNL1        0.0209
     25 C          62.2648   86.1141   11.1276 C.ar    1  UNL1       -0.0061
     26 C          62.5250   87.5770   11.3329 C.ar    1  UNL1       -0.0029
     27 C          61.9229   88.5843   10.3985 C.ar    1  UNL1       -0.0003
     28 C          61.0606   88.1286    9.2589 C.ar    1  UNL1        0.0000
     29 C          60.8004   86.6656    9.0536 C.ar    1  UNL1       -0.0003
     30 C          61.4025   85.6584    9.9879 C.ar    1  UNL1       -0.0029
     31 C          62.8669   85.1069   12.0620 C.3     1  UNL1        0.0992
     32 C          63.0816   86.2310   17.9518 C.3     1  UNL1        0.0897
     33 N          63.0279   85.9500   16.4793 N.3     1  UNL1       -0.2691
     34 C          63.8720   86.7499   15.5318 C.3     1  UNL1        0.0897
     35 C          63.8183   86.4688   14.0594 C.3     1  UNL1        0.0899
     36 N          62.9206   85.3879   13.5344 N.3     1  UNL1       -0.2665
     37 C          62.0765   84.5880   14.4818 C.3     1  UNL1        0.0899
     38 C          62.1301   84.8690   15.9543 C.3     1  UNL1        0.0897
@<TRIPOS>BOND
     1    32    33    1
     2    33    34    1
     3    34    35    1
     4    35    36    1
     5    36    31    1
     6    31    25    1
     7    25    26   ar
     8    26    27   ar
     9    27    28   ar
    10    28    23    1
    11    23    24    2
    12    24     1    1
    13     1     2    2
    14     2     3    1
    15     3     4    2
    16     4     5    1
    17     5     6    1
    18    10     6    1
    19    10    11    1
    20    12    11    1
    21    12    13    1
    22    13    14    2
    23    13    15   am
    24    15    16    1
    25    16    17   ar
    26    17    18   ar
    27    18    19   ar
    28    19    20   ar
    29    20    21   ar
    30     6     7    2
    31     7     8    1
    32     8     9    2
    33    28    29   ar
    34    29    30   ar
    35    36    37    1
    36    37    38    1
    37    38    33    1
    38    30    25   ar
    39     9     1    1
    40     9     4    1
    41    12    10    1
    42    21    16   ar
    43    21    12    1
    44    15    22    1
@<TRIPOS>MOLECULE
*****
 38 44 0 0 0
SMALL
GASTEIGER

@<TRIPOS>ATOM
      1 C          59.3271   89.4065    6.8434 C.2     1  UNL1        0.1040
      2 N          58.1671   88.4556    6.8606 N.2     1  UNL1       -0.1483
      3 N          58.3650   87.5036    8.0027 N.2     1  UNL1       -0.1520
      4 C          59.6474   87.8662    8.6914 C.2     1  UNL1        0.0860
      5 C          60.3505   87.2773    9.8783 C.3     1  UNL1        0.0697
      6 C          61.6481   87.8645   10.3487 C.2     1  UNL1       -0.0378
      7 C          62.2427   89.0405    9.6322 C.2     1  UNL1       -0.0080
      8 C          61.5396   89.6294    8.4453 C.2     1  UNL1        0.0022
      9 C          60.2419   89.0422    7.9748 C.2     1  UNL1        0.0350
     10 C          62.3513   87.2756   11.5357 C.3     1  UNL1        0.0315
     11 C          63.0824   87.4548   12.8331 C.3     1  UNL1        0.0179
     12 C          62.8381   86.0765   12.2941 C.3     1  UNL1        0.0927
     13 C          62.3289   85.0569   11.3189 C.2     1  UNL1        0.2293
     14 O          61.5903   85.3463   10.0458 O.2     1  UNL1       -0.2744
     15 N          62.6879   83.6970   11.8403 N.am    1  UNL1       -0.2839
     16 C          63.4190   83.8762   13.1378 C.ar    1  UNL1        0.0467
     17 C          64.0122   82.8902   14.1000 C.ar    1  UNL1        0.0144
     18 C          64.6982   83.3749   15.3428 C.ar    1  UNL1        0.0013
     19 C          64.7910   84.8455   15.6232 C.ar    1  UNL1       -0.0002
     20 C          64.1978   85.8315   14.6610 C.ar    1  UNL1       -0.0026
     21 C          63.5118   85.3468   13.4182 C.ar    1  UNL1       -0.0008
     22 H          62.4802   82.8377   11.4070 H       1  UNL1        0.1549
     23 C          60.7252   90.5115    4.9528 C.2     1  UNL1        0.0016
     24 C          59.5355   90.5254    5.8662 C.2     1  UNL1        0.0209
     25 C          61.3504   93.8680    2.0214 C.ar    1  UNL1       -0.0061
     26 C          62.4722   92.9202    2.3267 C.ar    1  UNL1       -0.0029
     27 C          62.2638   91.8013    3.3038 C.ar    1  UNL1       -0.0003
     28 C          60.9336   91.6303    3.9757 C.ar    1  UNL1        0.0000
     29 C          59.8118   92.5782    3.6704 C.ar    1  UNL1       -0.0003
     30 C          60.0202   93.6970    2.6933 C.ar    1  UNL1       -0.0029
     31 C          61.5588   94.9869    1.0442 C.3     1  UNL1        0.0992
     32 C          64.4756   93.9730   -4.1001 C.3     1  UNL1        0.0897
     33 N          63.7464   94.2265   -2.8140 N.3     1  UNL1       -0.2691
     34 C          62.4664   93.5009   -2.5220 C.3     1  UNL1        0.0897
     35 C          61.7372   93.7544   -1.2359 C.3     1  UNL1        0.0899
     36 N          62.2879   94.7334   -0.2418 N.3     1  UNL1       -0.2665
     37 C          63.5679   95.4589   -0.5338 C.3     1  UNL1        0.0899
     38 C          64.2971   95.2055   -1.8199 C.3     1  UNL1        0.0897
@<TRIPOS>BOND
     1    32    33    1
     2    33    34    1
     3    34    35    1
     4    35    36    1
     5    36    31    1
     6    31    25    1
     7    25    26   ar
     8    26    27   ar
     9    27    28   ar
    10    28    23    1
    11    23    24    2
    12    24     1    1
    13     1     2    2
    14     2     3    1
    15     3     4    2
    16     4     5    1
    17     5     6    1
    18    10     6    1
    19    10    11    1
    20    12    11    1
    21    12    13    1
    22    13    14    2
    23    13    15   am
    24    15    16    1
    25    16    17   ar
    26    17    18   ar
    27    18    19   ar
    28    19    20   ar
    29    20    21   ar
    30     6     7    2
    31     7     8    1
    32     8     9    2
    33    28    29   ar
    34    29    30   ar
    35    36    37    1
    36    37    38    1
    37    38    33    1
    38    30    25   ar
    39     9     1    1
    40     9     4    1
    41    12    10    1
    42    21    16   ar
    43    21    12    1
    44    15    22    1
