@<TRIPOS>MOLECULE
*****
 40 43 0 0 0
SMALL
GASTEIGER

@<TRIPOS>ATOM
      1 C          63.5518   90.6127   14.0624 C.3     1  UNL1        0.1146
      2 F          62.7842   87.9395   18.4516 F       1  UNL1       -0.2041
      3 C          63.2718   87.9974   17.0343 C.ar    1  UNL1        0.1429
      4 C          63.8633   86.7766   16.3942 C.ar    1  UNL1        0.0667
      5 C          64.3510   86.8345   14.9769 C.ar    1  UNL1        0.1461
      6 C          64.2472   88.1131   14.1996 C.ar    1  UNL1        0.0349
      7 C          63.6556   89.3339   14.8397 C.ar    1  UNL1        0.0045
      8 C          63.1680   89.2760   16.2570 C.ar    1  UNL1        0.0275
      9 O          64.9425   85.6136   14.3368 O.3     1  UNL1       -0.4263
     10 C          64.0570   84.4671   13.9476 C.3     1  UNL1        0.4723
     11 F          64.4548   83.7362   15.1956 F       1  UNL1       -0.1579
     12 F          63.6592   85.1980   12.6996 F       1  UNL1       -0.1579
     13 C          63.1715   83.3206   13.5584 C.3     1  UNL1        0.4202
     14 F          62.6406   83.2245   12.1588 F       1  UNL1       -0.1876
     15 F          62.8168   82.2703   14.5689 F       1  UNL1       -0.1876
     16 C          64.8697   91.0598   14.6219 C.ar    1  UNL1        0.0792
     17 C          66.1473   90.4994   14.0709 C.ar    1  UNL1        0.0175
     18 C          67.4653   90.9466   14.6305 C.ar    1  UNL1        0.0142
     19 C          67.5056   91.9540   15.7410 C.ar    1  UNL1        0.0768
     20 CL         68.8236   92.4012   16.3006 Cl      1  UNL1       -0.0806
     21 C          66.2280   92.5143   16.2921 C.ar    1  UNL1        0.1098
     22 N          64.9100   92.0672   15.7326 N.ar    1  UNL1       -0.2454
     23 N          62.2338   90.1656   13.5029 N.pl3   1  UNL1       -0.3077
     24 H          61.4026   90.3428   13.9997 H       1  UNL1        0.1492
     25 C          62.1824   89.4484   12.1864 C.ar    1  UNL1        0.1602
     26 N          62.3066   87.9674   11.9837 N.ar    1  UNL1       -0.2203
     27 C          62.1987   87.6900   10.5136 C.ar    1  UNL1        0.1610
     28 C          62.0079   88.9997    9.8077 C.ar    1  UNL1        0.0612
     29 S          61.9978   90.0865   10.8414 S.2     1  UNL1       -0.0513
     30 C          62.2692   86.3401    9.8635 C.3     1  UNL1        0.4354
     31 F          62.3398   84.9902    9.2132 F       1  UNL1       -0.1644
     32 F          61.4292   85.7655   10.9653 F       1  UNL1       -0.1644
     33 F          63.1094   86.9148    8.7616 F       1  UNL1       -0.1644
     34 C          63.4480   91.8914   13.2852 C.3     1  UNL1        0.0543
     35 C          64.5712   92.3160   12.3863 C.ar    1  UNL1       -0.0199
     36 C          64.6823   91.7449   11.0038 C.ar    1  UNL1       -0.0042
     37 C          65.8055   92.1695   10.1049 C.ar    1  UNL1       -0.0003
     38 C          66.8177   93.1653   10.5885 C.ar    1  UNL1       -0.0000
     39 C          66.7066   93.7365   11.9711 C.ar    1  UNL1       -0.0003
     40 C          65.5834   93.3118   12.8700 C.ar    1  UNL1       -0.0042
@<TRIPOS>BOND
     1     2     3    1
     2     3     4   ar
     3     4     5   ar
     4     5     9    1
     5     9    10    1
     6    10    11    1
     7    10    12    1
     8    10    13    1
     9    13    14    1
    10    13    15    1
    11     5     6   ar
    12     6     7   ar
    13     7     1    1
    14     1    34    1
    15    34    35    1
    16    35    36   ar
    17    36    37   ar
    18    37    38   ar
    19    38    39   ar
    20    39    40   ar
    21     1    23    1
    22    23    25    1
    23    25    26   ar
    24    26    27   ar
    25    27    30    1
    26    30    31    1
    27    30    32    1
    28    30    33    1
    29    27    28   ar
    30    28    29   ar
    31     1    16    1
    32    16    17   ar
    33    17    18   ar
    34    18    19   ar
    35    19    20    1
    36    19    21   ar
    37    21    22   ar
    38     7     8   ar
    39     8     3   ar
    40    40    35   ar
    41    29    25   ar
    42    22    16   ar
    43    23    24    1
@<TRIPOS>MOLECULE
*****
 40 43 0 0 0
SMALL
GASTEIGER

@<TRIPOS>ATOM
      1 C          62.2254   86.9674   10.8602 C.3     1  UNL1        0.1146
      2 F          63.2743   81.9018   10.3706 F       1  UNL1       -0.2041
      3 C          63.2488   83.1485   11.2044 C.ar    1  UNL1        0.1429
      4 C          63.7223   83.1090   12.6271 C.ar    1  UNL1        0.0667
      5 C          63.6968   84.3557   13.4609 C.ar    1  UNL1        0.1461
      6 C          63.1978   85.6418   12.8720 C.ar    1  UNL1        0.0349
      7 C          62.7244   85.6812   11.4493 C.ar    1  UNL1        0.0045
      8 C          62.7499   84.4346   10.6155 C.ar    1  UNL1        0.0275
      9 O          64.1703   84.3161   14.8837 O.3     1  UNL1       -0.4263
     10 C          63.6972   85.3514   15.8606 C.3     1  UNL1        0.4723
     11 F          62.4970   84.5078   16.1735 F       1  UNL1       -0.1579
     12 F          64.8973   86.1951   15.5478 F       1  UNL1       -0.1579
     13 C          63.2240   86.3867   16.8375 C.3     1  UNL1        0.4202
     14 F          63.4664   87.8416   16.5647 F       1  UNL1       -0.1876
     15 F          62.5085   85.9671   18.0874 F       1  UNL1       -0.1876
     16 C          62.0529   86.2922    9.5320 C.ar    1  UNL1        0.0792
     17 C          63.2505   85.7702    8.7949 C.ar    1  UNL1        0.0175
     18 C          63.0780   85.0949    7.4666 C.ar    1  UNL1        0.0142
     19 C          61.7079   84.9416    6.8755 C.ar    1  UNL1        0.0768
     20 CL         61.5354   84.2663    5.5472 Cl      1  UNL1       -0.0806
     21 C          60.5103   85.4636    7.6126 C.ar    1  UNL1        0.1098
     22 N          60.6828   86.1389    8.9408 N.ar    1  UNL1       -0.2454
     23 N          62.3978   87.6427   12.1885 N.pl3   1  UNL1       -0.3077
     24 H          62.0119   87.2394   12.9995 H       1  UNL1        0.1492
     25 C          63.1583   88.9323   12.2811 C.ar    1  UNL1        0.1602
     26 N          63.4818   89.8491   11.1388 N.ar    1  UNL1       -0.2203
     27 C          64.2521   91.0149   11.6840 C.ar    1  UNL1        0.1610
     28 C          64.4047   90.8187   13.1633 C.ar    1  UNL1        0.0612
     29 S          63.7287   89.5316   13.5324 S.2     1  UNL1       -0.0513
     30 C          64.7777   92.1736   10.8895 C.3     1  UNL1        0.4354
     31 F          65.3031   93.3323   10.0950 F       1  UNL1       -0.1644
     32 F          65.9838   92.2365   11.7790 F       1  UNL1       -0.1644
     33 F          63.5714   92.1107   10.0000 F       1  UNL1       -0.1644
     34 C          61.7264   88.2535   10.2712 C.3     1  UNL1        0.0543
     35 C          60.5717   88.9707   10.9055 C.ar    1  UNL1       -0.0199
     36 C          59.6293   88.2269   11.8046 C.ar    1  UNL1       -0.0042
     37 C          58.4746   88.9442   12.4389 C.ar    1  UNL1       -0.0003
     38 C          58.2624   90.4053   12.1740 C.ar    1  UNL1       -0.0000
     39 C          59.2049   91.1492   11.2748 C.ar    1  UNL1       -0.0003
     40 C          60.3595   90.4319   10.6406 C.ar    1  UNL1       -0.0042
@<TRIPOS>BOND
     1     2     3    1
     2     3     4   ar
     3     4     5   ar
     4     5     9    1
     5     9    10    1
     6    10    11    1
     7    10    12    1
     8    10    13    1
     9    13    14    1
    10    13    15    1
    11     5     6   ar
    12     6     7   ar
    13     7     1    1
    14     1    34    1
    15    34    35    1
    16    35    36   ar
    17    36    37   ar
    18    37    38   ar
    19    38    39   ar
    20    39    40   ar
    21     1    23    1
    22    23    25    1
    23    25    26   ar
    24    26    27   ar
    25    27    30    1
    26    30    31    1
    27    30    32    1
    28    30    33    1
    29    27    28   ar
    30    28    29   ar
    31     1    16    1
    32    16    17   ar
    33    17    18   ar
    34    18    19   ar
    35    19    20    1
    36    19    21   ar
    37    21    22   ar
    38     7     8   ar
    39     8     3   ar
    40    40    35   ar
    41    29    25   ar
    42    22    16   ar
    43    23    24    1
@<TRIPOS>MOLECULE
*****
 40 43 0 0 0
SMALL
GASTEIGER

@<TRIPOS>ATOM
      1 C          63.7034   90.1333   12.6772 C.3     1  UNL1        0.1146
      2 F          58.5346   89.7786   13.0741 F       1  UNL1       -0.2041
      3 C          59.7805   89.7199   12.2410 C.ar    1  UNL1        0.1429
      4 C          59.6881   89.4251   10.7732 C.ar    1  UNL1        0.0667
      5 C          60.9340   89.3663    9.9400 C.ar    1  UNL1        0.1461
      6 C          62.2724   89.6024   10.5746 C.ar    1  UNL1        0.0349
      7 C          62.3649   89.8972   12.0424 C.ar    1  UNL1        0.0045
      8 C          61.1190   89.9559   12.8756 C.ar    1  UNL1        0.0275
      9 O          60.8415   89.0715    8.4721 O.3     1  UNL1       -0.4263
     10 C          60.2517   87.7744    8.0034 C.3     1  UNL1        0.4723
     11 F          61.3610   87.0253    8.6805 F       1  UNL1       -0.1579
     12 F          59.1424   88.5234    7.3263 F       1  UNL1       -0.1579
     13 C          59.6619   86.4773    7.5347 C.3     1  UNL1        0.4202
     14 F          60.5597   85.3728    7.0614 F       1  UNL1       -0.1876
     15 F          58.1743   86.2847    7.5393 F       1  UNL1       -0.1876
     16 C          63.7520   88.6975   13.1086 C.ar    1  UNL1        0.0792
     17 C          64.3933   88.3277   14.4132 C.ar    1  UNL1        0.0175
     18 C          64.4419   86.8918   14.8446 C.ar    1  UNL1        0.0142
     19 C          63.8492   85.8259   13.9714 C.ar    1  UNL1        0.0768
     20 CL         63.8977   84.3900   14.4029 Cl      1  UNL1       -0.0806
     21 C          63.2079   86.1957   12.6668 C.ar    1  UNL1        0.1098
     22 N          63.1593   87.6315   12.2354 N.ar    1  UNL1       -0.2454
     23 N          63.6548   91.5690   12.2457 N.pl3   1  UNL1       -0.3077
     24 H          62.8219   92.0846   12.3439 H       1  UNL1        0.1492
     25 C          64.8753   92.2193   11.6646 C.ar    1  UNL1        0.1602
     26 N          65.7323   91.6632   10.5663 N.ar    1  UNL1       -0.2203
     27 C          66.8396   92.6400   10.3028 C.ar    1  UNL1        0.1610
     28 C          66.6670   93.7998   11.2382 C.ar    1  UNL1        0.0612
     29 S          65.4530   93.5399   12.0799 S.2     1  UNL1       -0.0513
     30 C          67.9285   92.4844    9.2828 C.3     1  UNL1        0.4354
     31 F          69.0173   92.3290    8.2629 F       1  UNL1       -0.1644
     32 F          68.3314   91.1835    9.9114 F       1  UNL1       -0.1644
     33 F          67.5254   93.7855    8.6543 F       1  UNL1       -0.1644
     34 C          65.0418   90.3693   13.3119 C.3     1  UNL1        0.0543
     35 C          65.1357   91.1195   14.6074 C.ar    1  UNL1       -0.0199
     36 C          66.4116   91.8140   14.9811 C.ar    1  UNL1       -0.0042
     37 C          66.5055   92.5642   16.2767 C.ar    1  UNL1       -0.0003
     38 C          65.3235   92.6198   17.1985 C.ar    1  UNL1       -0.0000
     39 C          64.0475   91.9253   16.8248 C.ar    1  UNL1       -0.0003
     40 C          63.9536   91.1751   15.5292 C.ar    1  UNL1       -0.0042
@<TRIPOS>BOND
     1     2     3    1
     2     3     4   ar
     3     4     5   ar
     4     5     9    1
     5     9    10    1
     6    10    11    1
     7    10    12    1
     8    10    13    1
     9    13    14    1
    10    13    15    1
    11     5     6   ar
    12     6     7   ar
    13     7     1    1
    14     1    34    1
    15    34    35    1
    16    35    36   ar
    17    36    37   ar
    18    37    38   ar
    19    38    39   ar
    20    39    40   ar
    21     1    23    1
    22    23    25    1
    23    25    26   ar
    24    26    27   ar
    25    27    30    1
    26    30    31    1
    27    30    32    1
    28    30    33    1
    29    27    28   ar
    30    28    29   ar
    31     1    16    1
    32    16    17   ar
    33    17    18   ar
    34    18    19   ar
    35    19    20    1
    36    19    21   ar
    37    21    22   ar
    38     7     8   ar
    39     8     3   ar
    40    40    35   ar
    41    29    25   ar
    42    22    16   ar
    43    23    24    1
@<TRIPOS>MOLECULE
*****
 40 43 0 0 0
SMALL
GASTEIGER

@<TRIPOS>ATOM
      1 C          61.9906   87.0785   11.6064 C.3     1  UNL1        0.1146
      2 F          65.4472   87.3066   15.4794 F       1  UNL1       -0.2041
      3 C          64.6600   87.9871   14.3990 C.ar    1  UNL1        0.1429
      4 C          64.8138   89.4622   14.1748 C.ar    1  UNL1        0.0667
      5 C          64.0266   90.1428   13.0945 C.ar    1  UNL1        0.1461
      6 C          63.0855   89.3482   12.2383 C.ar    1  UNL1        0.0349
      7 C          62.9317   87.8731   12.4626 C.ar    1  UNL1        0.0045
      8 C          63.7189   87.1926   13.5429 C.ar    1  UNL1        0.0275
      9 O          64.1805   91.6180   12.8703 O.3     1  UNL1       -0.4263
     10 C          65.2268   92.1276   11.9239 C.3     1  UNL1        0.4723
     11 F          64.2399   92.0599   10.7963 F       1  UNL1       -0.1579
     12 F          66.2137   92.1954   13.0515 F       1  UNL1       -0.1579
     13 C          66.2731   92.6373   10.9776 C.3     1  UNL1        0.4202
     14 F          67.6683   92.0898   11.0366 F       1  UNL1       -0.1876
     15 F          65.9241   93.6944    9.9722 F       1  UNL1       -0.1876
     16 C          61.0418   88.2398   11.5715 C.ar    1  UNL1        0.0792
     17 C          61.1294   89.2467   10.4632 C.ar    1  UNL1        0.0175
     18 C          60.1806   90.4081   10.4284 C.ar    1  UNL1        0.0142
     19 C          59.1443   90.5624   11.5017 C.ar    1  UNL1        0.0768
     20 CL         58.1955   91.7237   11.4669 Cl      1  UNL1       -0.0806
     21 C          59.0567   89.5554   12.6100 C.ar    1  UNL1        0.1098
     22 N          60.0055   88.3941   12.6449 N.ar    1  UNL1       -0.2454
     23 N          62.9393   85.9172   11.6413 N.pl3   1  UNL1       -0.3077
     24 H          63.7505   85.9274   11.0836 H       1  UNL1        0.1492
     25 C          62.6520   84.7403   12.5259 C.ar    1  UNL1        0.1602
     26 N          62.5901   83.3057   12.0923 N.ar    1  UNL1       -0.2203
     27 C          62.2761   82.4703   13.2978 C.ar    1  UNL1        0.1610
     28 C          62.1439   83.3885   14.4765 C.ar    1  UNL1        0.0612
     29 S          62.3763   84.7915   13.9995 S.2     1  UNL1       -0.0513
     30 C          62.1213   80.9784   13.3207 C.3     1  UNL1        0.4354
     31 F          61.9667   79.4866   13.3436 F       1  UNL1       -0.1644
     32 F          60.8612   81.1214   14.1217 F       1  UNL1       -0.1644
     33 F          63.3815   80.8355   12.5197 F       1  UNL1       -0.1644
     34 C          61.0495   86.2839   10.7503 C.3     1  UNL1        0.0543
     35 C          61.4712   85.8461    9.3790 C.ar    1  UNL1       -0.0199
     36 C          62.8711   85.3614    9.1438 C.ar    1  UNL1       -0.0042
     37 C          63.2928   84.9236    7.7725 C.ar    1  UNL1       -0.0003
     38 C          62.3145   84.9704    6.6364 C.ar    1  UNL1       -0.0000
     39 C          60.9145   85.4551    6.8715 C.ar    1  UNL1       -0.0003
     40 C          60.4929   85.8929    8.2428 C.ar    1  UNL1       -0.0042
@<TRIPOS>BOND
     1     2     3    1
     2     3     4   ar
     3     4     5   ar
     4     5     9    1
     5     9    10    1
     6    10    11    1
     7    10    12    1
     8    10    13    1
     9    13    14    1
    10    13    15    1
    11     5     6   ar
    12     6     7   ar
    13     7     1    1
    14     1    34    1
    15    34    35    1
    16    35    36   ar
    17    36    37   ar
    18    37    38   ar
    19    38    39   ar
    20    39    40   ar
    21     1    23    1
    22    23    25    1
    23    25    26   ar
    24    26    27   ar
    25    27    30    1
    26    30    31    1
    27    30    32    1
    28    30    33    1
    29    27    28   ar
    30    28    29   ar
    31     1    16    1
    32    16    17   ar
    33    17    18   ar
    34    18    19   ar
    35    19    20    1
    36    19    21   ar
    37    21    22   ar
    38     7     8   ar
    39     8     3   ar
    40    40    35   ar
    41    29    25   ar
    42    22    16   ar
    43    23    24    1
@<TRIPOS>MOLECULE
*****
 40 43 0 0 0
SMALL
GASTEIGER

@<TRIPOS>ATOM
      1 C          62.2828   88.2435   11.8931 C.3     1  UNL1        0.1146
      2 F          64.8397   92.4964   10.3521 F       1  UNL1       -0.2041
      3 C          64.4548   91.5334   11.4358 C.ar    1  UNL1        0.1429
      4 C          64.9635   91.7336   12.8325 C.ar    1  UNL1        0.0667
      5 C          64.5787   90.7705   13.9162 C.ar    1  UNL1        0.1461
      6 C          63.6851   89.6072   13.6031 C.ar    1  UNL1        0.0349
      7 C          63.1764   89.4069   12.2063 C.ar    1  UNL1        0.0045
      8 C          63.5613   90.3700   11.1226 C.ar    1  UNL1        0.0275
      9 O          65.0874   90.9709   15.3131 O.3     1  UNL1       -0.4263
     10 C          66.2745   91.8541   15.5594 C.3     1  UNL1        0.4723
     11 F          67.1460   90.8927   14.8069 F       1  UNL1       -0.1579
     12 F          65.4031   92.8155   16.3120 F       1  UNL1       -0.1579
     13 C          67.4616   92.7373   15.8058 C.3     1  UNL1        0.4202
     14 F          67.5073   94.1148   15.2138 F       1  UNL1       -0.1876
     15 F          68.6031   92.2430   16.6441 F       1  UNL1       -0.1876
     16 C          61.1097   89.1725   11.7894 C.ar    1  UNL1        0.0792
     17 C          61.0950   90.2482   10.7441 C.ar    1  UNL1        0.0175
     18 C          59.9219   91.1772   10.6404 C.ar    1  UNL1        0.0142
     19 C          58.7635   91.0305   11.5820 C.ar    1  UNL1        0.0768
     20 CL         57.5904   91.9596   11.4783 Cl      1  UNL1       -0.0806
     21 C          58.7782   89.9548   12.6273 C.ar    1  UNL1        0.1098
     22 N          59.9513   89.0258   12.7310 N.ar    1  UNL1       -0.2454
     23 N          63.4559   87.3145   11.9969 N.pl3   1  UNL1       -0.3077
     24 H          64.2396   87.4444   11.4154 H       1  UNL1        0.1492
     25 C          63.4349   86.1875   12.9865 C.ar    1  UNL1        0.1602
     26 N          62.6149   84.9359   12.8803 N.ar    1  UNL1       -0.2203
     27 C          62.9034   84.0892   14.0842 C.ar    1  UNL1        0.1610
     28 C          63.9017   84.8173   14.9346 C.ar    1  UNL1        0.0612
     29 S          64.2302   86.1142   14.2563 S.2     1  UNL1       -0.0513
     30 C          62.2997   82.7494   14.3851 C.3     1  UNL1        0.4354
     31 F          61.6959   81.4096   14.6859 F       1  UNL1       -0.1644
     32 F          62.4585   83.0077   15.8541 F       1  UNL1       -0.1644
     33 F          62.1408   82.4911   12.9160 F       1  UNL1       -0.1644
     34 C          61.3892   87.0802   11.5800 C.3     1  UNL1        0.0543
     35 C          61.1859   86.6524   10.1567 C.ar    1  UNL1       -0.0199
     36 C          59.9034   86.9796    9.4511 C.ar    1  UNL1       -0.0042
     37 C          59.7001   86.5518    8.0278 C.ar    1  UNL1       -0.0003
     38 C          60.7794   85.7968    7.3102 C.ar    1  UNL1       -0.0000
     39 C          62.0621   85.4696    8.0158 C.ar    1  UNL1       -0.0003
     40 C          62.2653   85.8974    9.4390 C.ar    1  UNL1       -0.0042
@<TRIPOS>BOND
     1     2     3    1
     2     3     4   ar
     3     4     5   ar
     4     5     9    1
     5     9    10    1
     6    10    11    1
     7    10    12    1
     8    10    13    1
     9    13    14    1
    10    13    15    1
    11     5     6   ar
    12     6     7   ar
    13     7     1    1
    14     1    34    1
    15    34    35    1
    16    35    36   ar
    17    36    37   ar
    18    37    38   ar
    19    38    39   ar
    20    39    40   ar
    21     1    23    1
    22    23    25    1
    23    25    26   ar
    24    26    27   ar
    25    27    30    1
    26    30    31    1
    27    30    32    1
    28    30    33    1
    29    27    28   ar
    30    28    29   ar
    31     1    16    1
    32    16    17   ar
    33    17    18   ar
    34    18    19   ar
    35    19    20    1
    36    19    21   ar
    37    21    22   ar
    38     7     8   ar
    39     8     3   ar
    40    40    35   ar
    41    29    25   ar
    42    22    16   ar
    43    23    24    1
@<TRIPOS>MOLECULE
*****
 40 43 0 0 0
SMALL
GASTEIGER

@<TRIPOS>ATOM
      1 C          62.8574   88.6749   12.2302 C.3     1  UNL1        0.1146
      2 F          58.6017   91.6125   11.7209 F       1  UNL1       -0.2041
      3 C          59.5975   90.6557   11.1352 C.ar    1  UNL1        0.1429
      4 C          59.4611   90.2110    9.7092 C.ar    1  UNL1        0.0667
      5 C          60.4569   89.2542    9.1235 C.ar    1  UNL1        0.1461
      6 C          61.5890   88.7422    9.9638 C.ar    1  UNL1        0.0349
      7 C          61.7253   89.1869   11.3898 C.ar    1  UNL1        0.0045
      8 C          60.7296   90.1437   11.9755 C.ar    1  UNL1        0.0275
      9 O          60.3205   88.8095    7.6974 O.3     1  UNL1       -0.4263
     10 C          59.5003   89.6166    6.7352 C.3     1  UNL1        0.4723
     11 F          60.7191   90.4052    6.3577 F       1  UNL1       -0.1579
     12 F          58.2814   88.8280    7.1127 F       1  UNL1       -0.1579
     13 C          58.6800   90.4238    5.7731 C.3     1  UNL1        0.4202
     14 F          59.3567   91.3235    4.7818 F       1  UNL1       -0.1876
     15 F          57.1831   90.3312    5.8022 F       1  UNL1       -0.1876
     16 C          63.5845   89.9732   12.0416 C.ar    1  UNL1        0.0792
     17 C          63.5778   90.6490   10.7025 C.ar    1  UNL1        0.0175
     18 C          64.3050   91.9474   10.5139 C.ar    1  UNL1        0.0142
     19 C          65.0388   92.5700   11.6645 C.ar    1  UNL1        0.0768
     20 CL         65.7660   93.8684   11.4760 Cl      1  UNL1       -0.0806
     21 C          65.0455   91.8942   13.0036 C.ar    1  UNL1        0.1098
     22 N          64.3184   90.5959   13.1922 N.ar    1  UNL1       -0.2454
     23 N          62.1303   87.3766   12.4187 N.pl3   1  UNL1       -0.3077
     24 H          61.4260   87.3016   13.1024 H       1  UNL1        0.1492
     25 C          62.4764   86.1924   11.5655 C.ar    1  UNL1        0.1602
     26 N          62.8145   84.8175   12.0609 N.ar    1  UNL1       -0.2203
     27 C          63.0922   83.9506   10.8688 C.ar    1  UNL1        0.1610
     28 C          62.9257   84.7896    9.6366 C.ar    1  UNL1        0.0612
     29 S          62.5451   86.1751   10.0671 S.2     1  UNL1       -0.0513
     30 C          63.4700   82.4993   10.9027 C.3     1  UNL1        0.4354
     31 F          63.8480   81.0481   10.9365 F       1  UNL1       -0.1644
     32 F          62.2907   82.2128   11.7841 F       1  UNL1       -0.1644
     33 F          64.6494   82.7859   10.0212 F       1  UNL1       -0.1644
     34 C          63.9895   88.1629   13.0705 C.3     1  UNL1        0.0543
     35 C          63.7430   87.7548   14.4927 C.ar    1  UNL1       -0.0199
     36 C          63.9631   86.3320   14.9135 C.ar    1  UNL1       -0.0042
     37 C          63.7166   85.9238   16.3357 C.ar    1  UNL1       -0.0003
     38 C          63.2500   86.9384   17.3371 C.ar    1  UNL1       -0.0000
     39 C          63.0299   88.3613   16.9162 C.ar    1  UNL1       -0.0003
     40 C          63.2764   88.7695   15.4941 C.ar    1  UNL1       -0.0042
@<TRIPOS>BOND
     1     2     3    1
     2     3     4   ar
     3     4     5   ar
     4     5     9    1
     5     9    10    1
     6    10    11    1
     7    10    12    1
     8    10    13    1
     9    13    14    1
    10    13    15    1
    11     5     6   ar
    12     6     7   ar
    13     7     1    1
    14     1    34    1
    15    34    35    1
    16    35    36   ar
    17    36    37   ar
    18    37    38   ar
    19    38    39   ar
    20    39    40   ar
    21     1    23    1
    22    23    25    1
    23    25    26   ar
    24    26    27   ar
    25    27    30    1
    26    30    31    1
    27    30    32    1
    28    30    33    1
    29    27    28   ar
    30    28    29   ar
    31     1    16    1
    32    16    17   ar
    33    17    18   ar
    34    18    19   ar
    35    19    20    1
    36    19    21   ar
    37    21    22   ar
    38     7     8   ar
    39     8     3   ar
    40    40    35   ar
    41    29    25   ar
    42    22    16   ar
    43    23    24    1
@<TRIPOS>MOLECULE
*****
 40 43 0 0 0
SMALL
GASTEIGER

@<TRIPOS>ATOM
      1 C          63.7124   89.3128   13.3987 C.3     1  UNL1        0.1146
      2 F          65.0060   84.7483   15.5182 F       1  UNL1       -0.2041
      3 C          64.2914   85.5321   14.4575 C.ar    1  UNL1        0.1429
      4 C          63.5092   84.8174   13.3958 C.ar    1  UNL1        0.0667
      5 C          62.7947   85.6012   12.3350 C.ar    1  UNL1        0.1461
      6 C          62.8624   87.0996   12.3360 C.ar    1  UNL1        0.0349
      7 C          63.6447   87.8143   13.3977 C.ar    1  UNL1        0.0045
      8 C          64.3592   87.0305   14.4585 C.ar    1  UNL1        0.0275
      9 O          62.0124   84.8864   11.2733 O.3     1  UNL1       -0.4263
     10 C          62.1651   85.2825    9.8346 C.3     1  UNL1        0.4723
     11 F          60.8611   86.0208    9.8994 F       1  UNL1       -0.1579
     12 F          63.4692   84.5441    9.7698 F       1  UNL1       -0.1579
     13 C          62.3179   85.6785    8.3959 C.3     1  UNL1        0.4202
     14 F          63.6840   85.7639    7.7825 F       1  UNL1       -0.1876
     15 F          61.1044   85.9890    7.5706 F       1  UNL1       -0.1876
     16 C          62.7388   89.3576   12.2585 C.ar    1  UNL1        0.0792
     17 C          63.1952   89.0242   10.8691 C.ar    1  UNL1        0.0175
     18 C          62.2215   89.0690    9.7289 C.ar    1  UNL1        0.0142
     19 C          60.7916   89.4471    9.9781 C.ar    1  UNL1        0.0768
     20 CL         59.8179   89.4918    8.8379 Cl      1  UNL1       -0.0806
     21 C          60.3352   89.7804   11.3676 C.ar    1  UNL1        0.1098
     22 N          61.3088   89.7357   12.5078 N.ar    1  UNL1       -0.2454
     23 N          64.6860   89.2681   14.5389 N.pl3   1  UNL1       -0.3077
     24 H          65.0029   88.4014   14.8819 H       1  UNL1        0.1492
     25 C          65.1768   90.5439   15.1566 C.ar    1  UNL1        0.1602
     26 N          66.5505   91.1263   15.0031 N.ar    1  UNL1       -0.2203
     27 C          66.6028   92.4036   15.7878 C.ar    1  UNL1        0.1610
     28 C          65.2613   92.6105   16.4263 C.ar    1  UNL1        0.0612
     29 S          64.3799   91.4612   16.0362 S.2     1  UNL1       -0.0513
     30 C          67.7883   93.3141   15.9123 C.3     1  UNL1        0.4354
     31 F          68.9737   94.2247   16.0367 F       1  UNL1       -0.1644
     32 F          68.4172   92.3622   16.8860 F       1  UNL1       -0.1644
     33 F          67.1592   94.2661   14.9386 F       1  UNL1       -0.1644
     34 C          63.7802   90.8113   13.3997 C.3     1  UNL1        0.0543
     35 C          64.5555   91.5277   12.3341 C.ar    1  UNL1       -0.0199
     36 C          63.8590   92.0119   11.0970 C.ar    1  UNL1       -0.0042
     37 C          64.6344   92.7283   10.0314 C.ar    1  UNL1       -0.0003
     38 C          66.1063   92.9605   10.2029 C.ar    1  UNL1       -0.0000
     39 C          66.8029   92.4764   11.4400 C.ar    1  UNL1       -0.0003
     40 C          66.0275   91.7599   12.5056 C.ar    1  UNL1       -0.0042
@<TRIPOS>BOND
     1     2     3    1
     2     3     4   ar
     3     4     5   ar
     4     5     9    1
     5     9    10    1
     6    10    11    1
     7    10    12    1
     8    10    13    1
     9    13    14    1
    10    13    15    1
    11     5     6   ar
    12     6     7   ar
    13     7     1    1
    14     1    34    1
    15    34    35    1
    16    35    36   ar
    17    36    37   ar
    18    37    38   ar
    19    38    39   ar
    20    39    40   ar
    21     1    23    1
    22    23    25    1
    23    25    26   ar
    24    26    27   ar
    25    27    30    1
    26    30    31    1
    27    30    32    1
    28    30    33    1
    29    27    28   ar
    30    28    29   ar
    31     1    16    1
    32    16    17   ar
    33    17    18   ar
    34    18    19   ar
    35    19    20    1
    36    19    21   ar
    37    21    22   ar
    38     7     8   ar
    39     8     3   ar
    40    40    35   ar
    41    29    25   ar
    42    22    16   ar
    43    23    24    1
@<TRIPOS>MOLECULE
*****
 40 43 0 0 0
SMALL
GASTEIGER

@<TRIPOS>ATOM
      1 C          63.5134   90.4041   14.2922 C.3     1  UNL1        0.1146
      2 F          59.4603   90.6604   11.0508 F       1  UNL1       -0.2041
      3 C          60.6942   89.9581   11.5348 C.ar    1  UNL1        0.1429
      4 C          61.1355   88.6817   10.8821 C.ar    1  UNL1        0.0667
      5 C          62.3694   87.9794   11.3661 C.ar    1  UNL1        0.1461
      6 C          63.1620   88.5535   12.5028 C.ar    1  UNL1        0.0349
      7 C          62.7208   89.8299   13.1554 C.ar    1  UNL1        0.0045
      8 C          61.4869   90.5322   12.6714 C.ar    1  UNL1        0.0275
      9 O          62.8106   86.7029   10.7134 O.3     1  UNL1       -0.4263
     10 C          62.1117   86.2102    9.4810 C.3     1  UNL1        0.4723
     11 F          61.0501   85.5818   10.3343 F       1  UNL1       -0.1579
     12 F          63.1732   86.8386    8.6277 F       1  UNL1       -0.1579
     13 C          61.4127   85.7174    8.2487 C.3     1  UNL1        0.4202
     14 F          59.9281   85.8817    8.1121 F       1  UNL1       -0.1876
     15 F          62.1986   85.0603    7.1528 F       1  UNL1       -0.1876
     16 C          63.5955   89.0450   14.9214 C.ar    1  UNL1        0.0792
     17 C          64.4854   87.9949   14.3251 C.ar    1  UNL1        0.0175
     18 C          64.5674   86.6357   14.9543 C.ar    1  UNL1        0.0142
     19 C          63.7597   86.3266   16.1799 C.ar    1  UNL1        0.0768
     20 CL         63.8417   84.9674   16.8091 Cl      1  UNL1       -0.0806
     21 C          62.8698   87.3767   16.7762 C.ar    1  UNL1        0.1098
     22 N          62.7878   88.7358   16.1470 N.ar    1  UNL1       -0.2454
     23 N          63.4314   91.7632   13.6630 N.pl3   1  UNL1       -0.3077
     24 H          62.8426   92.4504   14.0507 H       1  UNL1        0.1492
     25 C          64.2463   92.0754   12.4429 C.ar    1  UNL1        0.1602
     26 N          65.3251   93.1130   12.3449 N.ar    1  UNL1       -0.2203
     27 C          65.8710   93.0836   10.9482 C.ar    1  UNL1        0.1610
     28 C          65.1296   92.0278   10.1829 C.ar    1  UNL1        0.0612
     29 S          64.1255   91.4046   11.1066 S.2     1  UNL1       -0.0513
     30 C          66.9660   93.9566   10.4109 C.3     1  UNL1        0.4354
     31 F          68.0610   94.8298    9.8737 F       1  UNL1       -0.1644
     32 F          67.3030   92.9077    9.3931 F       1  UNL1       -0.1644
     33 F          66.6290   95.0057   11.4289 F       1  UNL1       -0.1644
     34 C          64.3061   90.9782   15.4288 C.3     1  UNL1        0.0543
     35 C          65.6706   91.5488   15.1789 C.ar    1  UNL1       -0.0199
     36 C          66.5966   90.8800   14.2067 C.ar    1  UNL1       -0.0042
     37 C          67.9611   91.4506   13.9567 C.ar    1  UNL1       -0.0003
     38 C          68.3997   92.6899   14.6789 C.ar    1  UNL1       -0.0000
     39 C          67.4737   93.3587   15.6512 C.ar    1  UNL1       -0.0003
     40 C          66.1091   92.7882   15.9012 C.ar    1  UNL1       -0.0042
@<TRIPOS>BOND
     1     2     3    1
     2     3     4   ar
     3     4     5   ar
     4     5     9    1
     5     9    10    1
     6    10    11    1
     7    10    12    1
     8    10    13    1
     9    13    14    1
    10    13    15    1
    11     5     6   ar
    12     6     7   ar
    13     7     1    1
    14     1    34    1
    15    34    35    1
    16    35    36   ar
    17    36    37   ar
    18    37    38   ar
    19    38    39   ar
    20    39    40   ar
    21     1    23    1
    22    23    25    1
    23    25    26   ar
    24    26    27   ar
    25    27    30    1
    26    30    31    1
    27    30    32    1
    28    30    33    1
    29    27    28   ar
    30    28    29   ar
    31     1    16    1
    32    16    17   ar
    33    17    18   ar
    34    18    19   ar
    35    19    20    1
    36    19    21   ar
    37    21    22   ar
    38     7     8   ar
    39     8     3   ar
    40    40    35   ar
    41    29    25   ar
    42    22    16   ar
    43    23    24    1
@<TRIPOS>MOLECULE
*****
 40 43 0 0 0
SMALL
GASTEIGER

@<TRIPOS>ATOM
      1 C          63.4603   89.1525   13.1840 C.3     1  UNL1        0.1146
      2 F          58.3519   89.8361   12.5228 F       1  UNL1       -0.2041
      3 C          59.6772   89.3633   12.0033 C.ar    1  UNL1        0.1429
      4 C          59.7737   88.7595   10.6336 C.ar    1  UNL1        0.0667
      5 C          61.0990   88.2866   10.1141 C.ar    1  UNL1        0.1461
      6 C          62.3279   88.4176   10.9642 C.ar    1  UNL1        0.0349
      7 C          62.2314   89.0215   12.3338 C.ar    1  UNL1        0.0045
      8 C          60.9060   89.4943   12.8534 C.ar    1  UNL1        0.0275
      9 O          61.1955   87.6827    8.7443 O.3     1  UNL1       -0.4263
     10 C          61.9626   86.4104    8.5380 C.3     1  UNL1        0.4723
     11 F          63.2411   87.1308    8.8486 F       1  UNL1       -0.1579
     12 F          60.6842   85.6899    8.2273 F       1  UNL1       -0.1579
     13 C          62.7298   85.1380    8.3316 C.3     1  UNL1        0.4202
     14 F          63.4873   84.5256    9.4722 F       1  UNL1       -0.1876
     15 F          62.7394   84.4781    6.9845 F       1  UNL1       -0.1876
     16 C          63.5461   87.6588   13.2901 C.ar    1  UNL1        0.0792
     17 C          64.3369   87.0298   14.3987 C.ar    1  UNL1        0.0175
     18 C          64.4227   85.5359   14.5048 C.ar    1  UNL1        0.0142
     19 C          63.7177   84.6712   13.5022 C.ar    1  UNL1        0.0768
     20 CL         63.8036   83.1773   13.6082 Cl      1  UNL1       -0.0806
     21 C          62.9270   85.3002   12.3936 C.ar    1  UNL1        0.1098
     22 N          62.8411   86.7939   12.2875 N.ar    1  UNL1       -0.2454
     23 N          63.3744   90.6463   13.0780 N.pl3   1  UNL1       -0.3077
     24 H          62.8752   91.1598   13.7534 H       1  UNL1        0.1492
     25 C          64.0492   91.3576   11.9428 C.ar    1  UNL1        0.1602
     26 N          65.4084   91.9909   11.9825 N.ar    1  UNL1       -0.2203
     27 C          65.6825   92.5852   10.6329 C.ar    1  UNL1        0.1610
     28 C          64.4928   92.3191    9.7590 C.ar    1  UNL1        0.0612
     29 S          63.4833   91.5604   10.5684 S.2     1  UNL1       -0.0513
     30 C          66.9277   93.3171   10.2281 C.3     1  UNL1        0.4354
     31 F          68.1729   94.0488    9.8234 F       1  UNL1       -0.1644
     32 F          66.1003   94.5008    9.8231 F       1  UNL1       -0.1644
     33 F          67.7551   92.1332   10.6332 F       1  UNL1       -0.1644
     34 C          64.6891   89.2835   14.0342 C.3     1  UNL1        0.0543
     35 C          64.8216   90.4329   14.9888 C.ar    1  UNL1       -0.0199
     36 C          63.7342   90.7106   15.9839 C.ar    1  UNL1       -0.0042
     37 C          63.8668   91.8600   16.9385 C.ar    1  UNL1       -0.0003
     38 C          65.0868   92.7318   16.8980 C.ar    1  UNL1       -0.0000
     39 C          66.1743   92.4541   15.9028 C.ar    1  UNL1       -0.0003
     40 C          66.0417   91.3047   14.9482 C.ar    1  UNL1       -0.0042
@<TRIPOS>BOND
     1     2     3    1
     2     3     4   ar
     3     4     5   ar
     4     5     9    1
     5     9    10    1
     6    10    11    1
     7    10    12    1
     8    10    13    1
     9    13    14    1
    10    13    15    1
    11     5     6   ar
    12     6     7   ar
    13     7     1    1
    14     1    34    1
    15    34    35    1
    16    35    36   ar
    17    36    37   ar
    18    37    38   ar
    19    38    39   ar
    20    39    40   ar
    21     1    23    1
    22    23    25    1
    23    25    26   ar
    24    26    27   ar
    25    27    30    1
    26    30    31    1
    27    30    32    1
    28    30    33    1
    29    27    28   ar
    30    28    29   ar
    31     1    16    1
    32    16    17   ar
    33    17    18   ar
    34    18    19   ar
    35    19    20    1
    36    19    21   ar
    37    21    22   ar
    38     7     8   ar
    39     8     3   ar
    40    40    35   ar
    41    29    25   ar
    42    22    16   ar
    43    23    24    1
