@<TRIPOS>MOLECULE
*****
 36 41 0 0 0
SMALL
GASTEIGER

@<TRIPOS>ATOM
      1 N          65.7134   92.0785   11.6514 N.am    1  UNL1       -0.1902
      2 C          65.9330   92.0430   13.1348 C.2     1  UNL1        0.4117
      3 O          67.1372   92.5657   13.8606 O.2     1  UNL1       -0.2257
      4 O          64.7371   91.3931   13.7652 O.3     1  UNL1       -0.4230
      5 C          63.7782   91.0269   12.6713 C.3     1  UNL1        0.2777
      6 C          64.3816   91.4505   11.3650 C.2     1  UNL1        0.2797
      7 O          63.7620   91.2766   10.0101 O.2     1  UNL1       -0.2700
      8 C          62.6437   90.5514   11.8130 C.ar    1  UNL1        0.2711
      9 N          61.2758   91.1627   11.7418 N.ar    1  UNL1       -0.1075
     10 N          60.4645   90.3702   10.7600 N.ar    1  UNL1       -0.1113
     11 C          61.3311   89.2691   10.2245 C.ar    1  UNL1        0.2291
     12 O          62.6779   89.3811   10.8753 O.2     1  UNL1       -0.4193
     13 C          60.9225   88.2372    9.2154 C.3     1  UNL1        0.0891
     14 C          60.2806   87.6257    8.0055 C.3     1  UNL1        0.0137
     15 C          60.1086   89.0890    8.2868 C.3     1  UNL1        0.0137
     16 C          61.5945   87.0272    9.7935 C.ar    1  UNL1       -0.0144
     17 C          62.4758   86.1742    8.9299 C.ar    1  UNL1       -0.0038
     18 C          63.1477   84.9642    9.5080 C.ar    1  UNL1       -0.0003
     19 C          62.9385   84.6071   10.9498 C.ar    1  UNL1       -0.0000
     20 C          62.0572   85.4601   11.8134 C.ar    1  UNL1       -0.0003
     21 C          61.3852   86.6702   11.2353 C.ar    1  UNL1       -0.0038
     22 C          67.7899   91.8049   10.1142 C.3     1  UNL1        0.0270
     23 C          66.6593   92.6429   10.6333 C.3     1  UNL1        0.1082
     24 C          66.4746   94.0454   10.1342 C.ar    1  UNL1       -0.0038
     25 C          67.1460   94.4850    8.8669 C.ar    1  UNL1       -0.0027
     26 C          66.9613   95.8874    8.3679 C.ar    1  UNL1       -0.0003
     27 C          66.1053   96.8503    9.1362 C.ar    1  UNL1       -0.0000
     28 C          65.4339   96.4106   10.4035 C.ar    1  UNL1       -0.0003
     29 C          65.6186   95.0082   10.9025 C.ar    1  UNL1       -0.0027
     30 C          62.9378   90.5039   13.7982 C.3     1  UNL1        0.0849
     31 C          63.3222   89.2311   14.4927 C.ar    1  UNL1       -0.0177
     32 C          63.9981   88.1331   13.7260 C.ar    1  UNL1       -0.0041
     33 C          64.3826   86.8603   14.4204 C.ar    1  UNL1       -0.0003
     34 C          64.0912   86.6855   15.8814 C.ar    1  UNL1       -0.0000
     35 C          63.4153   87.7835   16.6480 C.ar    1  UNL1       -0.0003
     36 C          63.0308   89.0563   15.9536 C.ar    1  UNL1       -0.0041
@<TRIPOS>BOND
     1    23    22    1
     2    23    24    1
     3    24    25   ar
     4    25    26   ar
     5    26    27   ar
     6    27    28   ar
     7    28    29   ar
     8    23     1    1
     9     1     2   am
    10     2     3    2
    11     2     4    1
    12     4     5    1
    13     5    30    1
    14    30    31    1
    15    31    32   ar
    16    32    33   ar
    17    33    34   ar
    18    34    35   ar
    19    35    36   ar
    20     5     8    1
    21     8     9   ar
    22     9    10   ar
    23    10    11   ar
    24    11    13    1
    25    13    16    1
    26    16    17   ar
    27    17    18   ar
    28    18    19   ar
    29    19    20   ar
    30    20    21   ar
    31    13    14    1
    32    14    15    1
    33    11    12   ar
    34     5     6    1
    35     6     7    2
    36    29    24   ar
    37     6     1   am
    38    36    31   ar
    39    12     8   ar
    40    15    13    1
    41    21    16   ar
@<TRIPOS>MOLECULE
*****
 36 41 0 0 0
SMALL
GASTEIGER

@<TRIPOS>ATOM
      1 N          62.0236   87.3159   11.1569 N.am    1  UNL1       -0.1902
      2 C          62.4653   86.1159   11.9410 C.2     1  UNL1        0.4117
      3 O          62.0650   84.6945   11.6778 O.2     1  UNL1       -0.2257
      4 O          63.3775   86.5869   13.0347 O.3     1  UNL1       -0.4230
      5 C          63.4996   88.0780   12.9264 C.3     1  UNL1        0.2777
      6 C          62.6629   88.5285   11.7659 C.2     1  UNL1        0.2797
      7 O          62.4949   89.9434   11.2967 O.2     1  UNL1       -0.2700
      8 C          63.8102   89.5387   13.0669 C.ar    1  UNL1        0.2711
      9 N          63.0666   90.5197   13.9240 N.ar    1  UNL1       -0.1075
     10 N          63.7156   91.8623   13.7618 N.ar    1  UNL1       -0.1113
     11 C          64.8605   91.7110   12.8044 C.ar    1  UNL1        0.2291
     12 O          64.9189   90.2749   12.3749 O.2     1  UNL1       -0.4193
     13 C          65.7845   92.8039   12.3553 C.3     1  UNL1        0.0891
     14 C          66.3562   93.9130   11.5229 C.3     1  UNL1        0.0137
     15 C          65.0908   93.2303   11.0955 C.3     1  UNL1        0.0137
     16 C          66.7992   92.7570   13.4590 C.ar    1  UNL1       -0.0144
     17 C          68.0408   91.9301   13.3018 C.ar    1  UNL1       -0.0038
     18 C          69.0554   91.8832   14.4056 C.ar    1  UNL1       -0.0003
     19 C          68.8284   92.6632   15.6666 C.ar    1  UNL1       -0.0000
     20 C          67.5868   93.4900   15.8238 C.ar    1  UNL1       -0.0003
     21 C          66.5721   93.5369   14.7201 C.ar    1  UNL1       -0.0038
     22 C          59.9056   88.2067    9.9442 C.3     1  UNL1        0.0270
     23 C          61.1041   87.3052    9.9718 C.3     1  UNL1        0.1082
     24 C          61.3832   86.3929    8.8142 C.ar    1  UNL1       -0.0038
     25 C          60.2856   86.0426    7.8538 C.ar    1  UNL1       -0.0027
     26 C          60.5647   85.1303    6.6963 C.ar    1  UNL1       -0.0003
     27 C          61.9415   84.5684    6.4992 C.ar    1  UNL1       -0.0000
     28 C          63.0391   84.9187    7.4596 C.ar    1  UNL1       -0.0003
     29 C          62.7599   85.8310    8.6171 C.ar    1  UNL1       -0.0027
     30 C          64.4013   87.9328   14.1163 C.3     1  UNL1        0.0849
     31 C          63.8538   87.4158   15.4136 C.ar    1  UNL1       -0.0177
     32 C          63.8599   85.9426   15.6962 C.ar    1  UNL1       -0.0041
     33 C          63.3125   85.4255   16.9934 C.ar    1  UNL1       -0.0003
     34 C          62.7590   86.3815   18.0082 C.ar    1  UNL1       -0.0000
     35 C          62.7530   87.8546   17.7256 C.ar    1  UNL1       -0.0003
     36 C          63.3004   88.3717   16.4283 C.ar    1  UNL1       -0.0041
@<TRIPOS>BOND
     1    23    22    1
     2    23    24    1
     3    24    25   ar
     4    25    26   ar
     5    26    27   ar
     6    27    28   ar
     7    28    29   ar
     8    23     1    1
     9     1     2   am
    10     2     3    2
    11     2     4    1
    12     4     5    1
    13     5    30    1
    14    30    31    1
    15    31    32   ar
    16    32    33   ar
    17    33    34   ar
    18    34    35   ar
    19    35    36   ar
    20     5     8    1
    21     8     9   ar
    22     9    10   ar
    23    10    11   ar
    24    11    13    1
    25    13    16    1
    26    16    17   ar
    27    17    18   ar
    28    18    19   ar
    29    19    20   ar
    30    20    21   ar
    31    13    14    1
    32    14    15    1
    33    11    12   ar
    34     5     6    1
    35     6     7    2
    36    29    24   ar
    37     6     1   am
    38    36    31   ar
    39    12     8   ar
    40    15    13    1
    41    21    16   ar
@<TRIPOS>MOLECULE
*****
 36 41 0 0 0
SMALL
GASTEIGER

@<TRIPOS>ATOM
      1 N          62.0777   87.3615   11.1520 N.am    1  UNL1       -0.1902
      2 C          62.4899   86.1618   11.9524 C.2     1  UNL1        0.4117
      3 O          62.0685   84.7449   11.6979 O.2     1  UNL1       -0.2257
      4 O          63.3975   86.6277   13.0520 O.3     1  UNL1       -0.4230
      5 C          63.5463   88.1154   12.9312 C.3     1  UNL1        0.2777
      6 C          62.7305   88.5689   11.7569 C.2     1  UNL1        0.2797
      7 O          62.5920   89.9818   11.2726 O.2     1  UNL1       -0.2700
      8 C          63.8801   89.5720   13.0615 C.ar    1  UNL1        0.2711
      9 N          62.9353   90.7161   12.8416 N.ar    1  UNL1       -0.1075
     10 N          63.6884   91.9914   13.0787 N.ar    1  UNL1       -0.1113
     11 C          65.0988   91.6355   13.4452 C.ar    1  UNL1        0.2291
     12 O          65.2172   90.1401   13.4346 O.2     1  UNL1       -0.4193
     13 C          66.1978   92.6047   13.7661 C.3     1  UNL1        0.0891
     14 C          67.1699   93.4185   14.5677 C.3     1  UNL1        0.0137
     15 C          66.2142   92.4939   15.2619 C.3     1  UNL1        0.0137
     16 C          66.5630   93.0520   12.3817 C.ar    1  UNL1       -0.0144
     17 C          66.2052   94.4340   11.9212 C.ar    1  UNL1       -0.0038
     18 C          66.5704   94.8813   10.5368 C.ar    1  UNL1       -0.0003
     19 C          67.2933   93.9466    9.6129 C.ar    1  UNL1       -0.0000
     20 C          67.6511   92.5645   10.0734 C.ar    1  UNL1       -0.0003
     21 C          67.2859   92.1172   11.4578 C.ar    1  UNL1       -0.0038
     22 C          59.9956   88.2844    9.9017 C.3     1  UNL1        0.0270
     23 C          61.1716   87.3550    9.9565 C.3     1  UNL1        0.1082
     24 C          61.4417   86.4190    8.8159 C.ar    1  UNL1       -0.0038
     25 C          60.3407   86.0619    7.8619 C.ar    1  UNL1       -0.0027
     26 C          60.6108   85.1260    6.7213 C.ar    1  UNL1       -0.0003
     27 C          61.9820   84.5471    6.5347 C.ar    1  UNL1       -0.0000
     28 C          63.0830   84.9042    7.4887 C.ar    1  UNL1       -0.0003
     29 C          62.8129   85.8401    8.6293 C.ar    1  UNL1       -0.0027
     30 C          64.4317   87.9664   14.1326 C.3     1  UNL1        0.0849
     31 C          63.8622   87.4649   15.4266 C.ar    1  UNL1       -0.0177
     32 C          63.2970   88.4337   16.4227 C.ar    1  UNL1       -0.0041
     33 C          62.7276   87.9323   17.7166 C.ar    1  UNL1       -0.0003
     34 C          62.7232   86.4621   18.0145 C.ar    1  UNL1       -0.0000
     35 C          63.2884   85.4935   17.0184 C.ar    1  UNL1       -0.0003
     36 C          63.8579   85.9949   15.7244 C.ar    1  UNL1       -0.0041
@<TRIPOS>BOND
     1    23    22    1
     2    23    24    1
     3    24    25   ar
     4    25    26   ar
     5    26    27   ar
     6    27    28   ar
     7    28    29   ar
     8    23     1    1
     9     1     2   am
    10     2     3    2
    11     2     4    1
    12     4     5    1
    13     5    30    1
    14    30    31    1
    15    31    32   ar
    16    32    33   ar
    17    33    34   ar
    18    34    35   ar
    19    35    36   ar
    20     5     8    1
    21     8     9   ar
    22     9    10   ar
    23    10    11   ar
    24    11    13    1
    25    13    16    1
    26    16    17   ar
    27    17    18   ar
    28    18    19   ar
    29    19    20   ar
    30    20    21   ar
    31    13    14    1
    32    14    15    1
    33    11    12   ar
    34     5     6    1
    35     6     7    2
    36    29    24   ar
    37     6     1   am
    38    36    31   ar
    39    12     8   ar
    40    15    13    1
    41    21    16   ar
@<TRIPOS>MOLECULE
*****
 36 41 0 0 0
SMALL
GASTEIGER

@<TRIPOS>ATOM
      1 N          62.5536   88.3230   11.4768 N.am    1  UNL1       -0.1902
      2 C          62.6599   86.8946   11.9223 C.2     1  UNL1        0.4117
      3 O          62.1243   85.7003   11.1896 O.2     1  UNL1       -0.2257
      4 O          63.3960   86.8701   13.2291 O.3     1  UNL1       -0.4230
      5 C          63.7445   88.2834   13.5912 C.3     1  UNL1        0.2777
      6 C          63.2239   89.1813   12.5083 C.2     1  UNL1        0.2797
      7 O          63.3512   90.6752   12.4646 O.2     1  UNL1       -0.2700
      8 C          64.2228   89.5650   14.2067 C.ar    1  UNL1        0.2711
      9 N          63.5131   90.3518   15.2683 N.ar    1  UNL1       -0.1075
     10 N          64.3463   91.5579   15.5864 N.ar    1  UNL1       -0.1113
     11 C          65.5710   91.5164   14.7212 C.ar    1  UNL1        0.2291
     12 O          65.4946   90.2847   13.8685 O.2     1  UNL1       -0.4193
     13 C          66.6778   92.5288   14.7107 C.3     1  UNL1        0.0891
     14 C          67.7137   93.4899   15.2136 C.3     1  UNL1        0.0137
     15 C          66.8585   92.7326   16.1858 C.3     1  UNL1        0.0137
     16 C          66.8814   92.6767   13.2319 C.ar    1  UNL1       -0.0144
     17 C          67.9883   91.9295   12.5488 C.ar    1  UNL1       -0.0038
     18 C          68.1919   92.0773   11.0701 C.ar    1  UNL1       -0.0003
     19 C          67.2886   92.9723   10.2744 C.ar    1  UNL1       -0.0000
     20 C          66.1818   93.7195   10.9576 C.ar    1  UNL1       -0.0003
     21 C          65.9782   93.5717   12.4363 C.ar    1  UNL1       -0.0038
     22 C          61.8930   90.2709    9.8897 C.3     1  UNL1        0.0270
     23 C          61.8929   88.8079   10.2205 C.3     1  UNL1        0.1082
     24 C          61.2322   87.8296    9.2949 C.ar    1  UNL1       -0.0038
     25 C          59.7577   87.9212    9.0352 C.ar    1  UNL1       -0.0027
     26 C          59.0970   86.9430    8.1097 C.ar    1  UNL1       -0.0003
     27 C          59.9108   85.8733    7.4439 C.ar    1  UNL1       -0.0000
     28 C          61.3853   85.7817    7.7036 C.ar    1  UNL1       -0.0003
     29 C          62.0460   86.7599    8.6291 C.ar    1  UNL1       -0.0027
     30 C          64.3651   87.6534   14.8028 C.3     1  UNL1        0.0849
     31 C          64.2271   86.1779   15.0349 C.ar    1  UNL1       -0.0177
     32 C          65.1631   85.2213   14.3573 C.ar    1  UNL1       -0.0041
     33 C          65.0252   83.7459   14.5894 C.ar    1  UNL1       -0.0003
     34 C          63.9513   83.2268   15.4990 C.ar    1  UNL1       -0.0000
     35 C          63.0154   84.1834   16.1765 C.ar    1  UNL1       -0.0003
     36 C          63.1533   85.6589   15.9445 C.ar    1  UNL1       -0.0041
@<TRIPOS>BOND
     1    23    22    1
     2    23    24    1
     3    24    25   ar
     4    25    26   ar
     5    26    27   ar
     6    27    28   ar
     7    28    29   ar
     8    23     1    1
     9     1     2   am
    10     2     3    2
    11     2     4    1
    12     4     5    1
    13     5    30    1
    14    30    31    1
    15    31    32   ar
    16    32    33   ar
    17    33    34   ar
    18    34    35   ar
    19    35    36   ar
    20     5     8    1
    21     8     9   ar
    22     9    10   ar
    23    10    11   ar
    24    11    13    1
    25    13    16    1
    26    16    17   ar
    27    17    18   ar
    28    18    19   ar
    29    19    20   ar
    30    20    21   ar
    31    13    14    1
    32    14    15    1
    33    11    12   ar
    34     5     6    1
    35     6     7    2
    36    29    24   ar
    37     6     1   am
    38    36    31   ar
    39    12     8   ar
    40    15    13    1
    41    21    16   ar
@<TRIPOS>MOLECULE
*****
 36 41 0 0 0
SMALL
GASTEIGER

@<TRIPOS>ATOM
      1 N          66.0091   92.3105   12.0871 N.am    1  UNL1       -0.1902
      2 C          66.2243   92.6120   13.5406 C.2     1  UNL1        0.4117
      3 O          67.3258   93.4543   14.1127 O.2     1  UNL1       -0.2257
      4 O          65.1445   91.9235   14.3217 O.3     1  UNL1       -0.4230
      5 C          64.2620   91.1964   13.3509 C.3     1  UNL1        0.2777
      6 C          64.7963   91.4356   11.9699 C.2     1  UNL1        0.2797
      7 O          64.2192   90.8948   10.6953 O.2     1  UNL1       -0.2700
      8 C          63.2224   90.3838   12.6376 C.ar    1  UNL1        0.2711
      9 N          61.8179   90.8167   12.3376 N.ar    1  UNL1       -0.1075
     10 N          61.1321   89.6962   11.6136 N.ar    1  UNL1       -0.1113
     11 C          62.1128   88.5707   11.4663 C.ar    1  UNL1        0.2291
     12 O          63.4046   88.9957   12.0992 O.2     1  UNL1       -0.4193
     13 C          61.8481   87.2518   10.8026 C.3     1  UNL1        0.0891
     14 C          61.8844   85.7765   10.5343 C.3     1  UNL1        0.0137
     15 C          62.6229   86.3432   11.7105 C.3     1  UNL1        0.0137
     16 C          60.9813   87.7023    9.6644 C.ar    1  UNL1       -0.0144
     17 C          60.1344   86.7077    8.9272 C.ar    1  UNL1       -0.0038
     18 C          59.2676   87.1582    7.7889 C.ar    1  UNL1       -0.0003
     19 C          59.2478   88.6034    7.3877 C.ar    1  UNL1       -0.0000
     20 C          60.0947   89.5981    8.1249 C.ar    1  UNL1       -0.0003
     21 C          60.9615   89.1475    9.2632 C.ar    1  UNL1       -0.0038
     22 C          67.9590   91.9339   10.4120 C.3     1  UNL1        0.0270
     23 C          66.8576   92.7982   10.9504 C.3     1  UNL1        0.1082
     24 C          66.6047   94.1504   10.3521 C.ar    1  UNL1       -0.0038
     25 C          67.2127   94.5107    9.0290 C.ar    1  UNL1       -0.0027
     26 C          66.9598   95.8627    8.4308 C.ar    1  UNL1       -0.0003
     27 C          66.0990   96.8545    9.1556 C.ar    1  UNL1       -0.0000
     28 C          65.4910   96.4942   10.4786 C.ar    1  UNL1       -0.0003
     29 C          65.7439   95.1421   11.0769 C.ar    1  UNL1       -0.0027
     30 C          63.5104   90.7874   14.5828 C.3     1  UNL1        0.0849
     31 C          63.6411   89.3898   15.1118 C.ar    1  UNL1       -0.0177
     32 C          62.9631   89.0068   16.3939 C.ar    1  UNL1       -0.0041
     33 C          63.0938   87.6093   16.9230 C.ar    1  UNL1       -0.0003
     34 C          63.9024   86.5948   16.1700 C.ar    1  UNL1       -0.0000
     35 C          64.5803   86.9779   14.8880 C.ar    1  UNL1       -0.0003
     36 C          64.4497   88.3754   14.3589 C.ar    1  UNL1       -0.0041
@<TRIPOS>BOND
     1    23    22    1
     2    23    24    1
     3    24    25   ar
     4    25    26   ar
     5    26    27   ar
     6    27    28   ar
     7    28    29   ar
     8    23     1    1
     9     1     2   am
    10     2     3    2
    11     2     4    1
    12     4     5    1
    13     5    30    1
    14    30    31    1
    15    31    32   ar
    16    32    33   ar
    17    33    34   ar
    18    34    35   ar
    19    35    36   ar
    20     5     8    1
    21     8     9   ar
    22     9    10   ar
    23    10    11   ar
    24    11    13    1
    25    13    16    1
    26    16    17   ar
    27    17    18   ar
    28    18    19   ar
    29    19    20   ar
    30    20    21   ar
    31    13    14    1
    32    14    15    1
    33    11    12   ar
    34     5     6    1
    35     6     7    2
    36    29    24   ar
    37     6     1   am
    38    36    31   ar
    39    12     8   ar
    40    15    13    1
    41    21    16   ar
@<TRIPOS>MOLECULE
*****
 36 41 0 0 0
SMALL
GASTEIGER

@<TRIPOS>ATOM
      1 N          63.4323   85.9338   13.4740 N.am    1  UNL1       -0.1902
      2 C          62.8202   85.7816   12.1130 C.2     1  UNL1        0.4117
      3 O          62.4394   84.4874   11.4573 O.2     1  UNL1       -0.2257
      4 O          62.6557   87.1508   11.5229 O.3     1  UNL1       -0.4230
      5 C          63.1661   88.1493   12.5192 C.3     1  UNL1        0.2777
      6 C          63.6461   87.3971   13.7250 C.2     1  UNL1        0.2797
      7 O          64.2362   88.0021   14.9642 O.2     1  UNL1       -0.2700
      8 C          63.5950   89.3577   13.2974 C.ar    1  UNL1        0.2711
      9 N          62.7895   90.0600   14.3501 N.ar    1  UNL1       -0.1075
     10 N          63.6012   91.2124   14.8630 N.ar    1  UNL1       -0.1113
     11 C          64.9084   91.2224   14.1272 C.ar    1  UNL1        0.2291
     12 O          64.9045   90.0761   13.1597 O.2     1  UNL1       -0.4193
     13 C          66.0237   92.2059   14.3244 C.3     1  UNL1        0.0891
     14 C          66.9882   93.1232   15.0159 C.3     1  UNL1        0.0137
     15 C          65.9773   92.3567   15.8161 C.3     1  UNL1        0.0137
     16 C          66.4573   92.3967   12.9012 C.ar    1  UNL1       -0.0144
     17 C          65.5611   93.1109   11.9333 C.ar    1  UNL1       -0.0038
     18 C          65.9947   93.3017   10.5102 C.ar    1  UNL1       -0.0003
     19 C          67.3247   92.7783   10.0548 C.ar    1  UNL1       -0.0000
     20 C          68.2209   92.0642   11.0227 C.ar    1  UNL1       -0.0003
     21 C          67.7873   91.8734   12.4459 C.ar    1  UNL1       -0.0038
     22 C          64.5076   85.1116   15.6915 C.3     1  UNL1        0.0270
     23 C          63.7711   84.8185   14.4181 C.3     1  UNL1        0.1082
     24 C          63.3733   83.4102   14.0888 C.ar    1  UNL1       -0.0038
     25 C          62.0789   82.8560   14.6059 C.ar    1  UNL1       -0.0027
     26 C          61.6812   81.4478   14.2765 C.ar    1  UNL1       -0.0003
     27 C          62.5778   80.5936   13.4301 C.ar    1  UNL1       -0.0000
     28 C          63.8722   81.1478   12.9130 C.ar    1  UNL1       -0.0003
     29 C          64.2699   82.5560   13.2423 C.ar    1  UNL1       -0.0027
     30 C          62.7758   89.1540   11.4761 C.3     1  UNL1        0.0849
     31 C          61.8349   88.7648   10.3746 C.ar    1  UNL1       -0.0177
     32 C          60.6470   89.6264   10.0636 C.ar    1  UNL1       -0.0041
     33 C          59.7061   89.2373    8.9622 C.ar    1  UNL1       -0.0003
     34 C          59.9530   87.9866    8.1717 C.ar    1  UNL1       -0.0000
     35 C          61.1409   87.1251    8.4827 C.ar    1  UNL1       -0.0003
     36 C          62.0818   87.5142    9.5842 C.ar    1  UNL1       -0.0041
@<TRIPOS>BOND
     1    23    22    1
     2    23    24    1
     3    24    25   ar
     4    25    26   ar
     5    26    27   ar
     6    27    28   ar
     7    28    29   ar
     8    23     1    1
     9     1     2   am
    10     2     3    2
    11     2     4    1
    12     4     5    1
    13     5    30    1
    14    30    31    1
    15    31    32   ar
    16    32    33   ar
    17    33    34   ar
    18    34    35   ar
    19    35    36   ar
    20     5     8    1
    21     8     9   ar
    22     9    10   ar
    23    10    11   ar
    24    11    13    1
    25    13    16    1
    26    16    17   ar
    27    17    18   ar
    28    18    19   ar
    29    19    20   ar
    30    20    21   ar
    31    13    14    1
    32    14    15    1
    33    11    12   ar
    34     5     6    1
    35     6     7    2
    36    29    24   ar
    37     6     1   am
    38    36    31   ar
    39    12     8   ar
    40    15    13    1
    41    21    16   ar
@<TRIPOS>MOLECULE
*****
 36 41 0 0 0
SMALL
GASTEIGER

@<TRIPOS>ATOM
      1 N          63.3714   84.6469   12.4345 N.am    1  UNL1       -0.1902
      2 C          63.1428   84.3480   10.9825 C.2     1  UNL1        0.4117
      3 O          63.2270   82.9968   10.3366 O.2     1  UNL1       -0.2257
      4 O          62.8151   85.6374   10.2897 O.3     1  UNL1       -0.4230
      5 C          62.8413   86.7333   11.3136 C.3     1  UNL1        0.2777
      6 C          63.1851   86.1211   12.6391 C.2     1  UNL1        0.2797
      7 O          63.3190   86.8545   13.9408 O.2     1  UNL1       -0.2700
      8 C          62.7935   88.0131   12.0945 C.ar    1  UNL1        0.2711
      9 N          61.6006   88.9100   12.2450 N.ar    1  UNL1       -0.1075
     10 N          61.9999   90.0719   13.1056 N.ar    1  UNL1       -0.1113
     11 C          63.4396   89.8931   13.4870 C.ar    1  UNL1        0.2291
     12 O          63.9300   88.6206   12.8621 O.2     1  UNL1       -0.4193
     13 C          64.2471   90.8233   14.3429 C.3     1  UNL1        0.0891
     14 C          64.7621   91.5250   15.5645 C.3     1  UNL1        0.0137
     15 C          63.6855   90.4885   15.6930 C.3     1  UNL1        0.0137
     16 C          65.0891   91.4811   13.2902 C.ar    1  UNL1       -0.0144
     17 C          64.4951   91.8117   11.9530 C.ar    1  UNL1       -0.0038
     18 C          65.3371   92.4695   10.9003 C.ar    1  UNL1       -0.0003
     19 C          66.7731   92.7967   11.1846 C.ar    1  UNL1       -0.0000
     20 C          67.3670   92.4661   12.5218 C.ar    1  UNL1       -0.0003
     21 C          66.5251   91.8083   13.5745 C.ar    1  UNL1       -0.0038
     22 C          64.8199   83.9481   14.4750 C.3     1  UNL1        0.0270
     23 C          63.7244   83.6471   13.4956 C.3     1  UNL1        0.1082
     24 C          62.9819   82.3463   13.5773 C.ar    1  UNL1       -0.0038
     25 C          61.6062   82.3042   14.1737 C.ar    1  UNL1       -0.0027
     26 C          60.8637   81.0034   14.2553 C.ar    1  UNL1       -0.0003
     27 C          61.4969   79.7448   13.7405 C.ar    1  UNL1       -0.0000
     28 C          62.8726   79.7870   13.1441 C.ar    1  UNL1       -0.0003
     29 C          63.6150   81.0877   13.0625 C.ar    1  UNL1       -0.0027
     30 C          62.4875   87.6130   10.1514 C.3     1  UNL1        0.0849
     31 C          61.3316   87.2556    9.2647 C.ar    1  UNL1       -0.0177
     32 C          61.4539   86.1175    8.2952 C.ar    1  UNL1       -0.0041
     33 C          60.2981   85.7600    7.4085 C.ar    1  UNL1       -0.0003
     34 C          59.0199   86.5407    7.4912 C.ar    1  UNL1       -0.0000
     35 C          58.8976   87.6788    8.4607 C.ar    1  UNL1       -0.0003
     36 C          60.0535   88.0362    9.3474 C.ar    1  UNL1       -0.0041
@<TRIPOS>BOND
     1    23    22    1
     2    23    24    1
     3    24    25   ar
     4    25    26   ar
     5    26    27   ar
     6    27    28   ar
     7    28    29   ar
     8    23     1    1
     9     1     2   am
    10     2     3    2
    11     2     4    1
    12     4     5    1
    13     5    30    1
    14    30    31    1
    15    31    32   ar
    16    32    33   ar
    17    33    34   ar
    18    34    35   ar
    19    35    36   ar
    20     5     8    1
    21     8     9   ar
    22     9    10   ar
    23    10    11   ar
    24    11    13    1
    25    13    16    1
    26    16    17   ar
    27    17    18   ar
    28    18    19   ar
    29    19    20   ar
    30    20    21   ar
    31    13    14    1
    32    14    15    1
    33    11    12   ar
    34     5     6    1
    35     6     7    2
    36    29    24   ar
    37     6     1   am
    38    36    31   ar
    39    12     8   ar
    40    15    13    1
    41    21    16   ar
@<TRIPOS>MOLECULE
*****
 36 41 0 0 0
SMALL
GASTEIGER

@<TRIPOS>ATOM
      1 N          63.2702   86.0655   12.9317 N.am    1  UNL1       -0.1902
      2 C          62.4747   85.6937   11.7156 C.2     1  UNL1        0.4117
      3 O          62.0659   84.3058   11.3199 O.2     1  UNL1       -0.2257
      4 O          62.1599   86.9534   10.9645 O.3     1  UNL1       -0.4230
      5 C          62.7607   88.1038   11.7165 C.3     1  UNL1        0.2777
      6 C          63.4469   87.5551   12.9322 C.2     1  UNL1        0.2797
      7 O          64.1810   88.3555   13.9669 O.2     1  UNL1       -0.2700
      8 C          63.2391   89.4267   12.2371 C.ar    1  UNL1        0.2711
      9 N          62.7382   90.1233   13.4675 N.ar    1  UNL1       -0.1075
     10 N          63.4918   91.4124   13.6096 N.ar    1  UNL1       -0.1113
     11 C          64.4585   91.5126   12.4670 C.ar    1  UNL1        0.2291
     12 O          64.3023   90.2853   11.6187 O.2     1  UNL1       -0.4193
     13 C          65.4136   92.6418   12.2166 C.3     1  UNL1        0.0891
     14 C          66.0843   93.7947   11.5304 C.3     1  UNL1        0.0137
     15 C          64.9263   93.1025   10.8748 C.3     1  UNL1        0.0137
     16 C          66.2326   92.5732   13.4713 C.ar    1  UNL1       -0.0144
     17 C          66.6299   91.2414   14.0359 C.ar    1  UNL1       -0.0038
     18 C          67.4489   91.1729   15.2907 C.ar    1  UNL1       -0.0003
     19 C          67.8707   92.4360   15.9809 C.ar    1  UNL1       -0.0000
     20 C          67.4735   93.7678   15.4163 C.ar    1  UNL1       -0.0003
     21 C          66.6545   93.8363   14.1616 C.ar    1  UNL1       -0.0038
     22 C          64.6719   85.6210   15.0735 C.3     1  UNL1        0.0270
     23 C          63.7965   85.1148   13.9657 C.3     1  UNL1        0.1082
     24 C          63.4472   83.6579   13.8918 C.ar    1  UNL1       -0.0038
     25 C          64.3408   82.7092   13.1492 C.ar    1  UNL1       -0.0027
     26 C          63.9915   81.2523   13.0754 C.ar    1  UNL1       -0.0003
     27 C          62.7487   80.7441   13.7441 C.ar    1  UNL1       -0.0000
     28 C          61.8552   81.6928   14.4868 C.ar    1  UNL1       -0.0003
     29 C          62.2045   83.1497   14.5606 C.ar    1  UNL1       -0.0027
     30 C          62.1746   88.9290   10.6096 C.3     1  UNL1        0.0849
     31 C          61.3167   88.2804    9.5639 C.ar    1  UNL1       -0.0177
     32 C          61.7349   86.9749    8.9547 C.ar    1  UNL1       -0.0041
     33 C          60.8772   86.3263    7.9090 C.ar    1  UNL1       -0.0003
     34 C          59.6012   86.9830    7.4724 C.ar    1  UNL1       -0.0000
     35 C          59.1831   88.2885    8.0816 C.ar    1  UNL1       -0.0003
     36 C          60.0408   88.9371    9.1273 C.ar    1  UNL1       -0.0041
@<TRIPOS>BOND
     1    23    22    1
     2    23    24    1
     3    24    25   ar
     4    25    26   ar
     5    26    27   ar
     6    27    28   ar
     7    28    29   ar
     8    23     1    1
     9     1     2   am
    10     2     3    2
    11     2     4    1
    12     4     5    1
    13     5    30    1
    14    30    31    1
    15    31    32   ar
    16    32    33   ar
    17    33    34   ar
    18    34    35   ar
    19    35    36   ar
    20     5     8    1
    21     8     9   ar
    22     9    10   ar
    23    10    11   ar
    24    11    13    1
    25    13    16    1
    26    16    17   ar
    27    17    18   ar
    28    18    19   ar
    29    19    20   ar
    30    20    21   ar
    31    13    14    1
    32    14    15    1
    33    11    12   ar
    34     5     6    1
    35     6     7    2
    36    29    24   ar
    37     6     1   am
    38    36    31   ar
    39    12     8   ar
    40    15    13    1
    41    21    16   ar
@<TRIPOS>MOLECULE
*****
 36 41 0 0 0
SMALL
GASTEIGER

@<TRIPOS>ATOM
      1 N          65.2127   91.7601   12.3549 N.am    1  UNL1       -0.1902
      2 C          64.2294   91.7804   11.2224 C.2     1  UNL1        0.4117
      3 O          64.4109   92.4832    9.9097 O.2     1  UNL1       -0.2257
      4 O          63.0327   90.9745   11.6330 O.3     1  UNL1       -0.4230
      5 C          63.2765   90.4562   13.0193 C.3     1  UNL1        0.2777
      6 C          64.6238   90.9417   13.4655 C.2     1  UNL1        0.2797
      7 O          65.2688   90.6585   14.7898 O.2     1  UNL1       -0.2700
      8 C          63.2369   89.8080   14.3714 C.ar    1  UNL1        0.2711
      9 N          63.1777   90.5213   15.6896 N.ar    1  UNL1       -0.1075
     10 N          63.1537   89.4870   16.7758 N.ar    1  UNL1       -0.1113
     11 C          63.1981   88.1343   16.1287 C.ar    1  UNL1        0.2291
     12 O          63.2494   88.3328   14.6428 O.2     1  UNL1       -0.4193
     13 C          63.1921   86.8150   16.8424 C.3     1  UNL1        0.0891
     14 C          63.0362   85.8092   17.9441 C.3     1  UNL1        0.0137
     15 C          62.7584   87.2594   18.2079 C.3     1  UNL1        0.0137
     16 C          63.6236   85.9124   15.7248 C.ar    1  UNL1       -0.0144
     17 C          65.0460   85.9351   15.2490 C.ar    1  UNL1       -0.0038
     18 C          65.4776   85.0326   14.1314 C.ar    1  UNL1       -0.0003
     19 C          64.4868   84.1072   13.4895 C.ar    1  UNL1       -0.0000
     20 C          63.0644   84.0846   13.9653 C.ar    1  UNL1       -0.0003
     21 C          62.6328   84.9871   15.0829 C.ar    1  UNL1       -0.0038
     22 C          67.3798   92.4273   13.6233 C.3     1  UNL1        0.0270
     23 C          66.5502   92.4390   12.3737 C.3     1  UNL1        0.1082
     24 C          67.0580   93.1297   11.1427 C.ar    1  UNL1       -0.0038
     25 C          67.8761   92.3707   10.1404 C.ar    1  UNL1       -0.0027
     26 C          68.3839   93.0614    8.9096 C.ar    1  UNL1       -0.0003
     27 C          68.0734   94.5110    8.6809 C.ar    1  UNL1       -0.0000
     28 C          67.2553   95.2699    9.6832 C.ar    1  UNL1       -0.0003
     29 C          66.7475   94.5793   10.9141 C.ar    1  UNL1       -0.0027
     30 C          61.9210   89.8352   12.8558 C.3     1  UNL1        0.0849
     31 C          61.5873   89.0817   11.6024 C.ar    1  UNL1       -0.0177
     32 C          62.3341   87.8264   11.2607 C.ar    1  UNL1       -0.0041
     33 C          62.0005   87.0729   10.0073 C.ar    1  UNL1       -0.0003
     34 C          60.9202   87.5746    9.0956 C.ar    1  UNL1       -0.0000
     35 C          60.1735   88.8299    9.4373 C.ar    1  UNL1       -0.0003
     36 C          60.5071   89.5834   10.6907 C.ar    1  UNL1       -0.0041
@<TRIPOS>BOND
     1    23    22    1
     2    23    24    1
     3    24    25   ar
     4    25    26   ar
     5    26    27   ar
     6    27    28   ar
     7    28    29   ar
     8    23     1    1
     9     1     2   am
    10     2     3    2
    11     2     4    1
    12     4     5    1
    13     5    30    1
    14    30    31    1
    15    31    32   ar
    16    32    33   ar
    17    33    34   ar
    18    34    35   ar
    19    35    36   ar
    20     5     8    1
    21     8     9   ar
    22     9    10   ar
    23    10    11   ar
    24    11    13    1
    25    13    16    1
    26    16    17   ar
    27    17    18   ar
    28    18    19   ar
    29    19    20   ar
    30    20    21   ar
    31    13    14    1
    32    14    15    1
    33    11    12   ar
    34     5     6    1
    35     6     7    2
    36    29    24   ar
    37     6     1   am
    38    36    31   ar
    39    12     8   ar
    40    15    13    1
    41    21    16   ar
