@<TRIPOS>MOLECULE
*****
 36 39 0 0 0
SMALL
GASTEIGER

@<TRIPOS>ATOM
      1 N          61.7014   87.4161   11.3387 N.ar    1  UNL1       -0.2459
      2 C          61.9750   88.3307   10.1817 C.ar    1  UNL1        0.1116
      3 C          60.6572   88.7965    9.6373 C.ar    1  UNL1        0.0908
      4 C          59.5691   88.1698   10.4578 C.ar    1  UNL1        0.1363
      5 N          60.2145   87.3167   11.5093 N.ar    1  UNL1       -0.1661
      6 N          60.4618   89.7258    8.4762 N.am    1  UNL1       -0.2766
      7 C          59.5917   89.3155    7.3253 C.2     1  UNL1        0.2707
      8 O          58.9170   87.9758    7.3355 O.2     1  UNL1       -0.2680
      9 H          60.9046   90.6051    8.4695 H       1  UNL1        0.1553
     10 C          59.3963   90.2448    6.1642 C.ar    1  UNL1        0.1770
     11 C          60.4843   90.8672    5.3402 C.ar    1  UNL1        0.1293
     12 N          59.8389   91.7220    4.2900 N.ar    1  UNL1       -0.1913
     13 N          58.3521   91.6279    4.4649 N.ar    1  UNL1       -0.0580
     14 N          58.0785   90.7149    5.6233 N.ar    1  UNL1       -0.1237
     15 C          60.5548   92.5292    3.2479 C.ar    1  UNL1        0.1654
     16 C          61.9958   92.2480    2.9404 C.ar    1  UNL1        0.0389
     17 C          62.7116   93.0551    1.8983 C.ar    1  UNL1        0.0047
     18 C          61.9865   94.1435    1.1636 C.ar    1  UNL1        0.0208
     19 C          60.5456   94.4247    1.4711 C.ar    1  UNL1        0.1006
     20 N          59.8296   93.6175    2.5133 N.ar    1  UNL1       -0.2250
     21 C          63.8381   87.5136   12.8135 C.3     1  UNL1        0.0312
     22 C          62.7335   86.7227   12.1777 C.3     1  UNL1        0.1274
     23 C          62.6610   85.2382   12.3809 C.ar    1  UNL1        0.0038
     24 C          62.5285   84.6763   13.7653 C.ar    1  UNL1       -0.0025
     25 C          62.4560   83.1920   13.9685 C.ar    1  UNL1        0.0036
     26 C          62.5160   82.2695   12.7873 C.ar    1  UNL1        0.0714
     27 C          62.6485   82.8313   11.4028 C.ar    1  UNL1        0.0074
     28 C          62.7210   84.3157   11.1997 C.ar    1  UNL1        0.0692
     29 C          62.4435   80.7850   12.9905 C.3     1  UNL1        0.4186
     30 F          62.3710   79.3007   13.1938 F       1  UNL1       -0.1659
     31 F          62.8183   80.5700   11.5541 F       1  UNL1       -0.1659
     32 F          62.0686   81.0000   14.4269 F       1  UNL1       -0.1659
     33 C          62.8535   84.8777    9.8152 C.3     1  UNL1        0.4183
     34 F          62.9860   85.4396    8.4308 F       1  UNL1       -0.1659
     35 F          61.3917   85.2135    9.8116 F       1  UNL1       -0.1659
     36 F          64.3154   84.5418    9.8187 F       1  UNL1       -0.1659
@<TRIPOS>BOND
     1    22    21    1
     2    22    23    1
     3    23    24   ar
     4    24    25   ar
     5    25    26   ar
     6    26    29    1
     7    29    30    1
     8    29    31    1
     9    29    32    1
    10    26    27   ar
    11    27    28   ar
    12    28    33    1
    13    33    34    1
    14    33    35    1
    15    33    36    1
    16    22     1    1
    17     1     2   ar
    18     2     3   ar
    19     3     6    1
    20     6     7   am
    21     7     8    2
    22     7    10    1
    23    10    11   ar
    24    11    12   ar
    25    12    15    1
    26    15    16   ar
    27    16    17   ar
    28    17    18   ar
    29    18    19   ar
    30    19    20   ar
    31    12    13   ar
    32    13    14   ar
    33     3     4   ar
    34     4     5   ar
    35    28    23   ar
    36     5     1   ar
    37    14    10   ar
    38    20    15   ar
    39     6     9    1
@<TRIPOS>MOLECULE
*****
 36 39 0 0 0
SMALL
GASTEIGER

@<TRIPOS>ATOM
      1 N          64.4731   90.4459   15.4254 N.ar    1  UNL1       -0.2459
      2 C          64.5950   89.2041   14.5929 C.ar    1  UNL1        0.1116
      3 C          63.6918   88.1610   15.1812 C.ar    1  UNL1        0.0908
      4 C          63.0116   88.7582   16.3774 C.ar    1  UNL1        0.1363
      5 N          63.4945   90.1703   16.5282 N.ar    1  UNL1       -0.1661
      6 N          63.5020   86.7658   14.6642 N.am    1  UNL1       -0.2766
      7 C          63.3704   85.6214   15.6249 C.2     1  UNL1        0.2707
      8 O          63.4285   85.8722   17.1027 O.2     1  UNL1       -0.2680
      9 H          63.4639   86.6012   13.6943 H       1  UNL1        0.1553
     10 C          63.1807   84.2262   15.1079 C.ar    1  UNL1        0.1770
     11 C          63.2883   83.7945   13.6754 C.ar    1  UNL1        0.1293
     12 N          63.0241   82.3191   13.6148 N.ar    1  UNL1       -0.1913
     13 N          62.7533   81.8390   15.0099 N.ar    1  UNL1       -0.0580
     14 N          62.8500   83.0177   15.9327 N.ar    1  UNL1       -0.1237
     15 C          63.0298   81.4726   12.3766 C.ar    1  UNL1        0.1654
     16 C          63.4308   82.0710   11.0607 C.ar    1  UNL1        0.0389
     17 C          63.4365   81.2245    9.8225 C.ar    1  UNL1        0.0047
     18 C          63.0412   79.7795    9.8999 C.ar    1  UNL1        0.0208
     19 C          62.6403   79.1812   11.2157 C.ar    1  UNL1        0.1006
     20 N          62.6345   80.0277   12.4540 N.ar    1  UNL1       -0.2250
     21 C          65.3425   92.7279   16.3123 C.3     1  UNL1        0.0312
     22 C          65.2019   91.7366   15.1954 C.3     1  UNL1        0.1274
     23 C          65.7900   92.0361   13.8483 C.ar    1  UNL1        0.0038
     24 C          64.9088   92.0653   12.6349 C.ar    1  UNL1       -0.0025
     25 C          65.4969   92.3648   11.2879 C.ar    1  UNL1        0.0036
     26 C          66.9663   92.6351   11.1544 C.ar    1  UNL1        0.0714
     27 C          67.8476   92.6059   12.3679 C.ar    1  UNL1        0.0074
     28 C          67.2594   92.3065   13.7148 C.ar    1  UNL1        0.0692
     29 C          67.5545   92.9346    9.8074 C.3     1  UNL1        0.4186
     30 F          68.1426   93.2341    8.4604 F       1  UNL1       -0.1659
     31 F          68.0438   91.5203    9.7065 F       1  UNL1       -0.1659
     32 F          67.0652   94.3489    9.9082 F       1  UNL1       -0.1659
     33 C          68.1406   92.2773   14.9284 C.3     1  UNL1        0.4183
     34 F          69.0218   92.2481   16.1419 F       1  UNL1       -0.1659
     35 F          68.2676   93.7708   14.8721 F       1  UNL1       -0.1659
     36 F          68.0137   90.7837   14.9847 F       1  UNL1       -0.1659
@<TRIPOS>BOND
     1    22    21    1
     2    22    23    1
     3    23    24   ar
     4    24    25   ar
     5    25    26   ar
     6    26    29    1
     7    29    30    1
     8    29    31    1
     9    29    32    1
    10    26    27   ar
    11    27    28   ar
    12    28    33    1
    13    33    34    1
    14    33    35    1
    15    33    36    1
    16    22     1    1
    17     1     2   ar
    18     2     3   ar
    19     3     6    1
    20     6     7   am
    21     7     8    2
    22     7    10    1
    23    10    11   ar
    24    11    12   ar
    25    12    15    1
    26    15    16   ar
    27    16    17   ar
    28    17    18   ar
    29    18    19   ar
    30    19    20   ar
    31    12    13   ar
    32    13    14   ar
    33     3     4   ar
    34     4     5   ar
    35    28    23   ar
    36     5     1   ar
    37    14    10   ar
    38    20    15   ar
    39     6     9    1
@<TRIPOS>MOLECULE
*****
 36 39 0 0 0
SMALL
GASTEIGER

@<TRIPOS>ATOM
      1 N          61.7487   87.4204   11.3599 N.ar    1  UNL1       -0.2459
      2 C          61.9956   88.2379   10.1268 C.ar    1  UNL1        0.1116
      3 C          60.6997   88.8803    9.7293 C.ar    1  UNL1        0.0908
      4 C          59.6519   88.4597   10.7167 C.ar    1  UNL1        0.1363
      5 N          60.3002   87.5575   11.7245 N.ar    1  UNL1       -0.1661
      6 N          60.4888   89.7845    8.5511 N.am    1  UNL1       -0.2766
      7 C          59.6334   89.3344    7.4041 C.2     1  UNL1        0.2707
      8 O          58.9889   87.9803    7.4352 O.2     1  UNL1       -0.2680
      9 H          60.9117   90.6732    8.5307 H       1  UNL1        0.1553
     10 C          59.4224   90.2386    6.2260 C.ar    1  UNL1        0.1770
     11 C          60.4996   90.8559    5.3842 C.ar    1  UNL1        0.1293
     12 N          59.8401   91.6830    4.3208 N.ar    1  UNL1       -0.1913
     13 N          58.3552   91.5769    4.5052 N.ar    1  UNL1       -0.0580
     14 N          58.0971   90.6842    5.6828 N.ar    1  UNL1       -0.1237
     15 C          60.5422   92.4768    3.2592 C.ar    1  UNL1        0.1654
     16 C          61.9707   92.1730    2.9170 C.ar    1  UNL1        0.0389
     17 C          62.6728   92.9668    1.8556 C.ar    1  UNL1        0.0047
     18 C          61.9464   94.0645    1.1361 C.ar    1  UNL1        0.0208
     19 C          60.5179   94.3683    1.4782 C.ar    1  UNL1        0.1006
     20 N          59.8157   93.5744    2.5398 N.ar    1  UNL1       -0.2250
     21 C          63.7682   87.2884   12.9891 C.3     1  UNL1        0.0312
     22 C          62.7709   86.6083   12.0987 C.3     1  UNL1        0.1274
     23 C          62.7956   85.1162   11.9471 C.ar    1  UNL1        0.0038
     24 C          62.6445   84.4977   10.5890 C.ar    1  UNL1       -0.0025
     25 C          62.6693   83.0056   10.4374 C.ar    1  UNL1        0.0036
     26 C          62.8451   82.1320   11.6440 C.ar    1  UNL1        0.0714
     27 C          62.9962   82.7505   13.0022 C.ar    1  UNL1        0.0074
     28 C          62.9715   84.2426   13.1537 C.ar    1  UNL1        0.0692
     29 C          62.8699   80.6398   11.4924 C.3     1  UNL1        0.4186
     30 F          62.8946   79.1477   11.3409 F       1  UNL1       -0.1659
     31 F          63.1809   80.7932   10.0331 F       1  UNL1       -0.1659
     32 F          62.5589   80.4865   12.9517 F       1  UNL1       -0.1659
     33 C          63.1225   84.8611   14.5119 C.3     1  UNL1        0.4183
     34 F          63.2737   85.4796   15.8700 F       1  UNL1       -0.1659
     35 F          64.6092   84.9181   14.3205 F       1  UNL1       -0.1659
     36 F          61.6359   84.8042   14.7033 F       1  UNL1       -0.1659
@<TRIPOS>BOND
     1    22    21    1
     2    22    23    1
     3    23    24   ar
     4    24    25   ar
     5    25    26   ar
     6    26    29    1
     7    29    30    1
     8    29    31    1
     9    29    32    1
    10    26    27   ar
    11    27    28   ar
    12    28    33    1
    13    33    34    1
    14    33    35    1
    15    33    36    1
    16    22     1    1
    17     1     2   ar
    18     2     3   ar
    19     3     6    1
    20     6     7   am
    21     7     8    2
    22     7    10    1
    23    10    11   ar
    24    11    12   ar
    25    12    15    1
    26    15    16   ar
    27    16    17   ar
    28    17    18   ar
    29    18    19   ar
    30    19    20   ar
    31    12    13   ar
    32    13    14   ar
    33     3     4   ar
    34     4     5   ar
    35    28    23   ar
    36     5     1   ar
    37    14    10   ar
    38    20    15   ar
    39     6     9    1
@<TRIPOS>MOLECULE
*****
 36 39 0 0 0
SMALL
GASTEIGER

@<TRIPOS>ATOM
      1 N          63.9347   87.0894   13.5902 N.ar    1  UNL1       -0.2459
      2 C          63.1308   86.9994   12.3269 C.ar    1  UNL1        0.1116
      3 C          62.7577   88.3926   11.9147 C.ar    1  UNL1        0.0908
      4 C          63.3309   89.3436   12.9232 C.ar    1  UNL1        0.1363
      5 N          64.0583   88.5381   13.9587 N.ar    1  UNL1       -0.1661
      6 N          61.9526   88.7687   10.7063 N.am    1  UNL1       -0.2766
      7 C          61.0023   87.7789   10.1004 C.2     1  UNL1        0.2707
      8 O          60.8570   86.4130   10.7031 O.2     1  UNL1       -0.2680
      9 H          62.0480   89.6652   10.3107 H       1  UNL1        0.1553
     10 C          60.1973   88.1550    8.8919 C.ar    1  UNL1        0.1770
     11 C          60.3949   89.3783    8.0466 C.ar    1  UNL1        0.1293
     12 N          59.3730   89.3531    6.9488 N.ar    1  UNL1       -0.1913
     13 N          58.5438   88.1144    7.1157 N.ar    1  UNL1       -0.0580
     14 N          59.0532   87.3738    8.3167 N.ar    1  UNL1       -0.1237
     15 C          59.2091   90.3855    5.8731 C.ar    1  UNL1        0.1654
     16 C          57.8387   90.8665    5.4976 C.ar    1  UNL1        0.0389
     17 C          57.6748   91.8988    4.4219 C.ar    1  UNL1        0.0047
     18 C          58.8813   92.4504    3.7215 C.ar    1  UNL1        0.0208
     19 C          60.2515   91.9695    4.0970 C.ar    1  UNL1        0.1006
     20 N          60.4155   90.9370    5.1728 N.ar    1  UNL1       -0.2250
     21 C          65.6694   86.1516   15.2817 C.3     1  UNL1        0.0312
     22 C          64.5133   85.9335   14.3512 C.3     1  UNL1        0.1274
     23 C          63.9357   84.5595   14.1818 C.ar    1  UNL1        0.0038
     24 C          64.4547   83.6555   13.1032 C.ar    1  UNL1       -0.0025
     25 C          63.8771   82.2816   12.9338 C.ar    1  UNL1        0.0036
     26 C          62.7805   81.8117   13.8430 C.ar    1  UNL1        0.0714
     27 C          62.2615   82.7157   14.9216 C.ar    1  UNL1        0.0074
     28 C          62.8391   84.0896   15.0910 C.ar    1  UNL1        0.0692
     29 C          62.2029   80.4377   13.6735 C.3     1  UNL1        0.4186
     30 F          61.6254   79.0638   13.5041 F       1  UNL1       -0.1659
     31 F          61.1015   80.7825   14.6316 F       1  UNL1       -0.1659
     32 F          63.3044   80.0929   12.7155 F       1  UNL1       -0.1659
     33 C          62.3201   84.9936   16.1696 C.3     1  UNL1        0.4183
     34 F          61.8011   85.8977   17.2482 F       1  UNL1       -0.1659
     35 F          63.6415   84.9112   16.8745 F       1  UNL1       -0.1659
     36 F          60.9986   85.0761   15.4647 F       1  UNL1       -0.1659
@<TRIPOS>BOND
     1    22    21    1
     2    22    23    1
     3    23    24   ar
     4    24    25   ar
     5    25    26   ar
     6    26    29    1
     7    29    30    1
     8    29    31    1
     9    29    32    1
    10    26    27   ar
    11    27    28   ar
    12    28    33    1
    13    33    34    1
    14    33    35    1
    15    33    36    1
    16    22     1    1
    17     1     2   ar
    18     2     3   ar
    19     3     6    1
    20     6     7   am
    21     7     8    2
    22     7    10    1
    23    10    11   ar
    24    11    12   ar
    25    12    15    1
    26    15    16   ar
    27    16    17   ar
    28    17    18   ar
    29    18    19   ar
    30    19    20   ar
    31    12    13   ar
    32    13    14   ar
    33     3     4   ar
    34     4     5   ar
    35    28    23   ar
    36     5     1   ar
    37    14    10   ar
    38    20    15   ar
    39     6     9    1
@<TRIPOS>MOLECULE
*****
 36 39 0 0 0
SMALL
GASTEIGER

@<TRIPOS>ATOM
      1 N          61.2128   88.0623    9.9745 N.ar    1  UNL1       -0.2459
      2 C          62.2092   88.5028   11.0056 C.ar    1  UNL1        0.1116
      3 C          61.9605   89.9522   11.3011 C.ar    1  UNL1        0.0908
      4 C          60.8103   90.4075   10.4527 C.ar    1  UNL1        0.1363
      5 N          60.3482   89.2395    9.6329 N.ar    1  UNL1       -0.1661
      6 N          62.7273   90.7978   12.2743 N.am    1  UNL1       -0.2766
      7 C          63.4922   90.1502   13.3903 C.2     1  UNL1        0.2707
      8 O          63.4902   88.6570   13.5332 O.2     1  UNL1       -0.2680
      9 H          62.7285   91.7778   12.1804 H       1  UNL1        0.1553
     10 C          64.2590   90.9958   14.3634 C.ar    1  UNL1        0.1770
     11 C          65.7147   91.3458   14.2712 C.ar    1  UNL1        0.1293
     12 N          66.0600   92.2062   15.4504 N.ar    1  UNL1       -0.1913
     13 N          64.8179   92.3880   16.2714 N.ar    1  UNL1       -0.0580
     14 N          63.7047   91.6399   15.5995 N.ar    1  UNL1       -0.1237
     15 C          67.4106   92.7835   15.7551 C.ar    1  UNL1        0.1654
     16 C          68.5152   91.8921   16.2403 C.ar    1  UNL1        0.0389
     17 C          69.8656   92.4693   16.5450 C.ar    1  UNL1        0.0047
     18 C          70.1117   93.9380   16.3646 C.ar    1  UNL1        0.0208
     19 C          69.0071   94.8294   15.8795 C.ar    1  UNL1        0.1006
     20 N          67.6565   94.2522   15.5748 N.ar    1  UNL1       -0.2250
     21 C          60.2190   86.4476    8.1983 C.3     1  UNL1        0.0312
     22 C          61.1006   86.6863    9.3881 C.3     1  UNL1        0.1274
     23 C          61.8701   85.5488    9.9916 C.ar    1  UNL1        0.0038
     24 C          61.7637   85.2674   11.4611 C.ar    1  UNL1       -0.0025
     25 C          62.5332   84.1300   12.0645 C.ar    1  UNL1        0.0036
     26 C          63.4090   83.2740   11.1984 C.ar    1  UNL1        0.0714
     27 C          63.5154   83.5554    9.7289 C.ar    1  UNL1        0.0074
     28 C          62.7459   84.6928    9.1255 C.ar    1  UNL1        0.0692
     29 C          64.1785   82.1365   11.8019 C.3     1  UNL1        0.4186
     30 F          64.9480   80.9991   12.4053 F       1  UNL1       -0.1659
     31 F          64.7215   83.0605   12.8513 F       1  UNL1       -0.1659
     32 F          63.6356   81.2125   10.7525 F       1  UNL1       -0.1659
     33 C          62.8523   84.9742    7.6559 C.3     1  UNL1        0.4183
     34 F          62.9586   85.2556    6.1865 F       1  UNL1       -0.1659
     35 F          61.7971   83.9439    7.3823 F       1  UNL1       -0.1659
     36 F          63.9075   86.0046    7.9296 F       1  UNL1       -0.1659
@<TRIPOS>BOND
     1    22    21    1
     2    22    23    1
     3    23    24   ar
     4    24    25   ar
     5    25    26   ar
     6    26    29    1
     7    29    30    1
     8    29    31    1
     9    29    32    1
    10    26    27   ar
    11    27    28   ar
    12    28    33    1
    13    33    34    1
    14    33    35    1
    15    33    36    1
    16    22     1    1
    17     1     2   ar
    18     2     3   ar
    19     3     6    1
    20     6     7   am
    21     7     8    2
    22     7    10    1
    23    10    11   ar
    24    11    12   ar
    25    12    15    1
    26    15    16   ar
    27    16    17   ar
    28    17    18   ar
    29    18    19   ar
    30    19    20   ar
    31    12    13   ar
    32    13    14   ar
    33     3     4   ar
    34     4     5   ar
    35    28    23   ar
    36     5     1   ar
    37    14    10   ar
    38    20    15   ar
    39     6     9    1
@<TRIPOS>MOLECULE
*****
 36 39 0 0 0
SMALL
GASTEIGER

@<TRIPOS>ATOM
      1 N          63.7320   86.1522   13.2133 N.ar    1  UNL1       -0.2459
      2 C          62.8360   86.2509   12.0144 C.ar    1  UNL1        0.1116
      3 C          62.5998   87.7048   11.7306 C.ar    1  UNL1        0.0908
      4 C          63.3499   88.5046   12.7542 C.ar    1  UNL1        0.1363
      5 N          64.0496   87.5450   13.6705 N.ar    1  UNL1       -0.1661
      6 N          61.7609   88.2611   10.6186 N.am    1  UNL1       -0.2766
      7 C          60.9148   87.3437    9.7864 C.2     1  UNL1        0.2707
      8 O          60.9076   85.8701   10.0662 O.2     1  UNL1       -0.2680
      9 H          61.7656   89.2283   10.4349 H       1  UNL1        0.1553
     10 C          60.0759   87.9001    8.6743 C.ar    1  UNL1        0.1770
     11 C          60.4087   89.0959    7.8322 C.ar    1  UNL1        0.1293
     12 N          59.2953   89.2931    6.8465 N.ar    1  UNL1       -0.1913
     13 N          58.2743   88.2192    7.0795 N.ar    1  UNL1       -0.0580
     14 N          58.7567   87.3582    8.2092 N.ar    1  UNL1       -0.1237
     15 C          59.2167   90.3744    5.8099 C.ar    1  UNL1        0.1654
     16 C          57.8857   90.9501    5.4261 C.ar    1  UNL1        0.0389
     17 C          57.8071   92.0314    4.3895 C.ar    1  UNL1        0.0047
     18 C          59.0594   92.5370    3.7366 C.ar    1  UNL1        0.0208
     19 C          60.3903   91.9613    4.1204 C.ar    1  UNL1        0.1006
     20 N          60.4690   90.8800    5.1571 N.ar    1  UNL1       -0.2250
     21 C          65.5937   84.8308   14.4535 C.3     1  UNL1        0.0312
     22 C          64.2240   84.8833   13.8442 C.3     1  UNL1        0.1274
     23 C          63.3463   83.6671   13.8658 C.ar    1  UNL1        0.0038
     24 C          62.4599   83.4027   15.0466 C.ar    1  UNL1       -0.0025
     25 C          61.5823   82.1865   15.0682 C.ar    1  UNL1        0.0036
     26 C          61.5910   81.2346   13.9089 C.ar    1  UNL1        0.0714
     27 C          62.4774   81.4990   12.7281 C.ar    1  UNL1        0.0074
     28 C          63.3551   82.7152   12.7066 C.ar    1  UNL1        0.0692
     29 C          60.7133   80.0184   13.9305 C.3     1  UNL1        0.4186
     30 F          59.8357   78.8021   13.9521 F       1  UNL1       -0.1659
     31 F          59.5630   80.8568   14.4033 F       1  UNL1       -0.1659
     32 F          61.8637   79.1799   13.4578 F       1  UNL1       -0.1659
     33 C          64.2415   82.9796   11.5257 C.3     1  UNL1        0.4183
     34 F          65.1279   83.2441   10.3449 F       1  UNL1       -0.1659
     35 F          63.1200   83.7088   10.8471 F       1  UNL1       -0.1659
     36 F          65.3630   82.2505   12.2043 F       1  UNL1       -0.1659
@<TRIPOS>BOND
     1    22    21    1
     2    22    23    1
     3    23    24   ar
     4    24    25   ar
     5    25    26   ar
     6    26    29    1
     7    29    30    1
     8    29    31    1
     9    29    32    1
    10    26    27   ar
    11    27    28   ar
    12    28    33    1
    13    33    34    1
    14    33    35    1
    15    33    36    1
    16    22     1    1
    17     1     2   ar
    18     2     3   ar
    19     3     6    1
    20     6     7   am
    21     7     8    2
    22     7    10    1
    23    10    11   ar
    24    11    12   ar
    25    12    15    1
    26    15    16   ar
    27    16    17   ar
    28    17    18   ar
    29    18    19   ar
    30    19    20   ar
    31    12    13   ar
    32    13    14   ar
    33     3     4   ar
    34     4     5   ar
    35    28    23   ar
    36     5     1   ar
    37    14    10   ar
    38    20    15   ar
    39     6     9    1
@<TRIPOS>MOLECULE
*****
 36 39 0 0 0
SMALL
GASTEIGER

@<TRIPOS>ATOM
      1 N          63.2798   90.6513   11.4613 N.ar    1  UNL1       -0.2459
      2 C          63.6349   89.2099   11.6765 C.ar    1  UNL1        0.1116
      3 C          62.3665   88.4100   11.6432 C.ar    1  UNL1        0.0908
      4 C          61.2273   89.3570   11.4074 C.ar    1  UNL1        0.1363
      5 N          61.7918   90.7422   11.2950 N.ar    1  UNL1       -0.1661
      6 N          62.2565   86.9240   11.8155 N.am    1  UNL1       -0.2766
      7 C          63.0463   86.2327   12.8871 C.2     1  UNL1        0.2707
      8 O          63.9461   87.0275   13.7864 O.2     1  UNL1       -0.2680
      9 H          61.6659   86.4024   11.2253 H       1  UNL1        0.1553
     10 C          62.9363   84.7467   13.0594 C.ar    1  UNL1        0.1770
     11 C          62.9625   83.7273   11.9594 C.ar    1  UNL1        0.1293
     12 N          62.8232   82.3698   12.5822 N.ar    1  UNL1       -0.1913
     13 N          62.7108   82.5502   14.0670 N.ar    1  UNL1       -0.0580
     14 N          62.7807   84.0194   14.3620 N.ar    1  UNL1       -0.1237
     15 C          62.8003   81.0615   11.8488 C.ar    1  UNL1        0.1654
     16 C          63.0668   81.0241   10.3731 C.ar    1  UNL1        0.0389
     17 C          63.0439   79.7159    9.6397 C.ar    1  UNL1        0.0047
     18 C          62.7544   78.4449   10.3819 C.ar    1  UNL1        0.0208
     19 C          62.4879   78.4823   11.8576 C.ar    1  UNL1        0.1006
     20 N          62.5108   79.7905   12.5911 N.ar    1  UNL1       -0.2250
     21 C          64.1738   92.7973   10.3014 C.3     1  UNL1        0.0312
     22 C          64.2434   91.8001   11.4197 C.3     1  UNL1        0.1274
     23 C          65.2768   91.9516   12.4964 C.ar    1  UNL1        0.0038
     24 C          64.9964   91.4479   13.8812 C.ar    1  UNL1       -0.0025
     25 C          66.0297   91.5994   14.9579 C.ar    1  UNL1        0.0036
     26 C          67.3434   92.2546   14.6497 C.ar    1  UNL1        0.0714
     27 C          67.6238   92.7582   13.2650 C.ar    1  UNL1        0.0074
     28 C          66.5905   92.6067   12.1883 C.ar    1  UNL1        0.0692
     29 C          68.3768   92.4061   15.7265 C.3     1  UNL1        0.4186
     30 F          69.4100   92.5576   16.8032 F       1  UNL1       -0.1659
     31 F          69.4563   92.4404   14.6857 F       1  UNL1       -0.1659
     32 F          67.2972   92.3718   16.7673 F       1  UNL1       -0.1659
     33 C          66.8709   93.1103   10.8034 C.3     1  UNL1        0.4183
     34 F          67.1512   93.6139    9.4186 F       1  UNL1       -0.1659
     35 F          67.3117   91.7366   10.3931 F       1  UNL1       -0.1659
     36 F          66.4301   94.4841   11.2137 F       1  UNL1       -0.1659
@<TRIPOS>BOND
     1    22    21    1
     2    22    23    1
     3    23    24   ar
     4    24    25   ar
     5    25    26   ar
     6    26    29    1
     7    29    30    1
     8    29    31    1
     9    29    32    1
    10    26    27   ar
    11    27    28   ar
    12    28    33    1
    13    33    34    1
    14    33    35    1
    15    33    36    1
    16    22     1    1
    17     1     2   ar
    18     2     3   ar
    19     3     6    1
    20     6     7   am
    21     7     8    2
    22     7    10    1
    23    10    11   ar
    24    11    12   ar
    25    12    15    1
    26    15    16   ar
    27    16    17   ar
    28    17    18   ar
    29    18    19   ar
    30    19    20   ar
    31    12    13   ar
    32    13    14   ar
    33     3     4   ar
    34     4     5   ar
    35    28    23   ar
    36     5     1   ar
    37    14    10   ar
    38    20    15   ar
    39     6     9    1
@<TRIPOS>MOLECULE
*****
 36 39 0 0 0
SMALL
GASTEIGER

@<TRIPOS>ATOM
      1 N          61.9589   88.5225   11.4645 N.ar    1  UNL1       -0.2459
      2 C          61.9925   89.5381   10.3611 C.ar    1  UNL1        0.1116
      3 C          60.7024   89.4408    9.6021 C.ar    1  UNL1        0.0908
      4 C          59.8714   88.3651   10.2364 C.ar    1  UNL1        0.1363
      5 N          60.6480   87.7976   11.3874 N.ar    1  UNL1       -0.1661
      6 N          60.3118   90.2731    8.4169 N.am    1  UNL1       -0.2766
      7 C          59.7173   89.6196    7.2047 C.2     1  UNL1        0.2707
      8 O          59.5134   88.1337    7.1777 O.2     1  UNL1       -0.2680
      9 H          60.4457   91.2483    8.4346 H       1  UNL1        0.1553
     10 C          59.3267   90.4518    6.0195 C.ar    1  UNL1        0.1770
     11 C          60.2663   91.0567    5.0188 C.ar    1  UNL1        0.1293
     12 N          59.4482   91.8041    4.0077 N.ar    1  UNL1       -0.1913
     13 N          58.0031   91.6611    4.3836 N.ar    1  UNL1       -0.0580
     14 N          57.9280   90.8254    5.6270 N.ar    1  UNL1       -0.1237
     15 C          59.9816   92.5615    2.8280 C.ar    1  UNL1        0.1654
     16 C          61.4625   92.7010    2.6335 C.ar    1  UNL1        0.0389
     17 C          61.9959   93.4583    1.4538 C.ar    1  UNL1        0.0047
     18 C          61.0486   94.0763    0.4685 C.ar    1  UNL1        0.0208
     19 C          59.5678   93.9368    0.6630 C.ar    1  UNL1        0.1006
     20 N          59.0343   93.1794    1.8427 N.ar    1  UNL1       -0.2250
     21 C          63.3337   86.8786   12.9333 C.3     1  UNL1        0.0312
     22 C          63.0455   88.2753   12.4687 C.3     1  UNL1        0.1274
     23 C          63.8438   89.4250   13.0082 C.ar    1  UNL1        0.0038
     24 C          64.1738   90.5899   12.1228 C.ar    1  UNL1       -0.0025
     25 C          64.9721   91.7395   12.6624 C.ar    1  UNL1        0.0036
     26 C          65.4404   91.7241   14.0873 C.ar    1  UNL1        0.0714
     27 C          65.1105   90.5591   14.9727 C.ar    1  UNL1        0.0074
     28 C          64.3122   89.4096   14.4331 C.ar    1  UNL1        0.0692
     29 C          66.2388   92.8738   14.6268 C.3     1  UNL1        0.4186
     30 F          67.0371   94.0234   15.1663 F       1  UNL1       -0.1659
     31 F          66.3008   92.2020   15.9665 F       1  UNL1       -0.1659
     32 F          66.1767   93.5455   13.2871 F       1  UNL1       -0.1659
     33 C          63.9822   88.2445   15.3185 C.3     1  UNL1        0.4183
     34 F          63.6522   87.0795   16.2038 F       1  UNL1       -0.1659
     35 F          65.1602   87.4947   14.7708 F       1  UNL1       -0.1659
     36 F          62.8042   88.9944   15.8662 F       1  UNL1       -0.1659
@<TRIPOS>BOND
     1    22    21    1
     2    22    23    1
     3    23    24   ar
     4    24    25   ar
     5    25    26   ar
     6    26    29    1
     7    29    30    1
     8    29    31    1
     9    29    32    1
    10    26    27   ar
    11    27    28   ar
    12    28    33    1
    13    33    34    1
    14    33    35    1
    15    33    36    1
    16    22     1    1
    17     1     2   ar
    18     2     3   ar
    19     3     6    1
    20     6     7   am
    21     7     8    2
    22     7    10    1
    23    10    11   ar
    24    11    12   ar
    25    12    15    1
    26    15    16   ar
    27    16    17   ar
    28    17    18   ar
    29    18    19   ar
    30    19    20   ar
    31    12    13   ar
    32    13    14   ar
    33     3     4   ar
    34     4     5   ar
    35    28    23   ar
    36     5     1   ar
    37    14    10   ar
    38    20    15   ar
    39     6     9    1
@<TRIPOS>MOLECULE
*****
 36 39 0 0 0
SMALL
GASTEIGER

@<TRIPOS>ATOM
      1 N          64.1599   89.7339   15.3095 N.ar    1  UNL1       -0.2459
      2 C          64.3456   88.7371   14.2040 C.ar    1  UNL1        0.1116
      3 C          63.8114   87.4171   14.6755 C.ar    1  UNL1        0.0908
      4 C          63.2956   87.5980   16.0723 C.ar    1  UNL1        0.1363
      5 N          63.5110   89.0299   16.4642 N.ar    1  UNL1       -0.1661
      6 N          63.7958   86.1404   13.8883 N.am    1  UNL1       -0.2766
      7 C          63.2006   86.1154   12.5117 C.2     1  UNL1        0.2707
      8 O          62.6210   87.3670   11.9222 O.2     1  UNL1       -0.2680
      9 H          64.1762   85.3189   14.2751 H       1  UNL1        0.1553
     10 C          63.1850   84.8386   11.7244 C.ar    1  UNL1        0.1770
     11 C          62.9834   83.4610   12.2826 C.ar    1  UNL1        0.1293
     12 N          63.0421   82.4864   11.1439 N.ar    1  UNL1       -0.1913
     13 N          63.2800   83.2615    9.8820 N.ar    1  UNL1       -0.0580
     14 N          63.3683   84.7154   10.2408 N.ar    1  UNL1       -0.1237
     15 C          62.8896   80.9978   11.2488 C.ar    1  UNL1        0.1654
     16 C          62.6252   80.3630   12.5820 C.ar    1  UNL1        0.0389
     17 C          62.4727   78.8746   12.6869 C.ar    1  UNL1        0.0047
     18 C          62.5847   78.0207   11.4587 C.ar    1  UNL1        0.0208
     19 C          62.8491   78.6555   10.1256 C.ar    1  UNL1        0.1006
     20 N          63.0016   80.1440   10.0206 N.ar    1  UNL1       -0.2250
     21 C          64.2841   92.0659   16.4480 C.3     1  UNL1        0.0312
     22 C          64.5540   91.1806   15.2676 C.3     1  UNL1        0.1274
     23 C          65.2179   91.7420   14.0453 C.ar    1  UNL1        0.0038
     24 C          64.4600   91.8306   12.7539 C.ar    1  UNL1       -0.0025
     25 C          65.1240   92.3920   11.5317 C.ar    1  UNL1        0.0036
     26 C          66.5458   92.8647   11.6008 C.ar    1  UNL1        0.0714
     27 C          67.3037   92.7761   12.8921 C.ar    1  UNL1        0.0074
     28 C          66.6398   92.2148   14.1144 C.ar    1  UNL1        0.0692
     29 C          67.2098   93.4262   10.3784 C.3     1  UNL1        0.4186
     30 F          67.8737   93.9876    9.1562 F       1  UNL1       -0.1659
     31 F          67.6920   92.0544   10.0103 F       1  UNL1       -0.1659
     32 F          66.7275   94.7979   10.7466 F       1  UNL1       -0.1659
     33 C          67.3977   92.1261   15.4059 C.3     1  UNL1        0.4183
     34 F          68.1556   92.0375   16.6973 F       1  UNL1       -0.1659
     35 F          67.0142   93.5400   15.7279 F       1  UNL1       -0.1659
     36 F          67.7812   90.7122   15.0838 F       1  UNL1       -0.1659
@<TRIPOS>BOND
     1    22    21    1
     2    22    23    1
     3    23    24   ar
     4    24    25   ar
     5    25    26   ar
     6    26    29    1
     7    29    30    1
     8    29    31    1
     9    29    32    1
    10    26    27   ar
    11    27    28   ar
    12    28    33    1
    13    33    34    1
    14    33    35    1
    15    33    36    1
    16    22     1    1
    17     1     2   ar
    18     2     3   ar
    19     3     6    1
    20     6     7   am
    21     7     8    2
    22     7    10    1
    23    10    11   ar
    24    11    12   ar
    25    12    15    1
    26    15    16   ar
    27    16    17   ar
    28    17    18   ar
    29    18    19   ar
    30    19    20   ar
    31    12    13   ar
    32    13    14   ar
    33     3     4   ar
    34     4     5   ar
    35    28    23   ar
    36     5     1   ar
    37    14    10   ar
    38    20    15   ar
    39     6     9    1
