@<TRIPOS>MOLECULE
*****
 24 26 0 0 0
SMALL
GASTEIGER

@<TRIPOS>ATOM
      1 N          66.1272   92.8981   12.1467 N.pl3   1  UNL1       -0.2872
      2 C          66.5215   93.8863   11.0895 C.ar    1  UNL1        0.0516
      3 C          67.2877   93.4290    9.8837 C.ar    1  UNL1        0.0157
      4 C          67.6820   94.4173    8.8265 C.ar    1  UNL1        0.0127
      5 C          67.3102   95.8628    8.9749 C.ar    1  UNL1        0.0578
      6 CL         67.7045   96.8511    7.9176 Cl      1  UNL1       -0.0822
      7 C          66.5440   96.3201   10.1806 C.ar    1  UNL1        0.0127
      8 C          66.1496   95.3319   11.2379 C.ar    1  UNL1        0.0157
      9 N          62.5629   90.2255   11.5115 N.3     1  UNL1       -0.1593
     10 C          63.2658   90.2359   12.8365 C.3     1  UNL1        0.0971
     11 C          64.4539   91.1268   13.0483 C.3     1  UNL1        0.0393
     12 C          64.9391   92.0072   11.9350 C.3     1  UNL1        0.0801
     13 C          64.2361   91.9968   10.6100 C.3     1  UNL1        0.0393
     14 C          63.0480   91.1060   10.3983 C.3     1  UNL1        0.0971
     15 C          60.1867   88.4438   11.0880 C.3     1  UNL1        0.1960
     16 S          61.3748   89.3347   11.2998 S.O2    1  UNL1        0.0457
     17 O          60.6139   90.4882   10.7162 O.2     1  UNL1       -0.1572
     18 O          62.1357   88.1812   11.8833 O.2     1  UNL1       -0.1572
     19 C          66.9209   92.8006   13.4157 C.ar    1  UNL1        0.0710
     20 C          68.1528   91.9463   13.4661 C.ar    1  UNL1        0.0180
     21 C          68.9466   91.8489   14.7352 C.ar    1  UNL1        0.0220
     22 C          68.5085   92.6058   15.9538 C.ar    1  UNL1        0.0990
     23 N          67.2766   93.4602   15.9034 N.ar    1  UNL1       -0.2410
     24 C          66.4828   93.5576   14.6344 C.ar    1  UNL1        0.1136
@<TRIPOS>BOND
     1    15    16    1
     2    16    17    2
     3    16    18    2
     4    16     9    1
     5     9    10    1
     6    10    11    1
     7    11    12    1
     8    12     1    1
     9     1     2    1
    10     2     3   ar
    11     3     4   ar
    12     4     5   ar
    13     5     6    1
    14     5     7   ar
    15     7     8   ar
    16     1    19    1
    17    19    20   ar
    18    20    21   ar
    19    21    22   ar
    20    22    23   ar
    21    23    24   ar
    22    12    13    1
    23    13    14    1
    24    14     9    1
    25     8     2   ar
    26    24    19   ar
@<TRIPOS>MOLECULE
*****
 24 26 0 0 0
SMALL
GASTEIGER

@<TRIPOS>ATOM
      1 N          62.7806   86.2533   12.0966 N.pl3   1  UNL1       -0.2872
      2 C          61.9255   86.4149   10.8749 C.ar    1  UNL1        0.0516
      3 C          62.3396   85.7805    9.5802 C.ar    1  UNL1        0.0157
      4 C          61.4844   85.9421    8.3586 C.ar    1  UNL1        0.0127
      5 C          60.2151   86.7381    8.4315 C.ar    1  UNL1        0.0578
      6 CL         59.3600   86.8997    7.2097 Cl      1  UNL1       -0.0822
      7 C          59.8010   87.3725    9.7261 C.ar    1  UNL1        0.0127
      8 C          60.6562   87.2109   10.9478 C.ar    1  UNL1        0.0157
      9 N          64.3958   89.8836   14.2089 N.3     1  UNL1       -0.1593
     10 C          63.6947   90.0325   12.8912 C.3     1  UNL1        0.0971
     11 C          63.1563   88.8224   12.1871 C.3     1  UNL1        0.0393
     12 C          63.3190   87.4634   12.8007 C.3     1  UNL1        0.0801
     13 C          64.0201   87.3145   14.1183 C.3     1  UNL1        0.0393
     14 C          64.5585   88.5246   14.8224 C.3     1  UNL1        0.0971
     15 C          65.4726   92.3038   15.6170 C.3     1  UNL1        0.1960
     16 S          64.9342   91.0937   14.9130 S.O2    1  UNL1        0.0457
     17 O          66.2572   90.9008   14.2328 O.2     1  UNL1       -0.1572
     18 O          63.6113   91.2866   15.5931 O.2     1  UNL1       -0.1572
     19 C          63.0974   84.8815   12.6142 C.ar    1  UNL1        0.0710
     20 C          64.0467   83.9967   11.8619 C.ar    1  UNL1        0.0180
     21 C          64.3635   82.6249   12.3795 C.ar    1  UNL1        0.0220
     22 C          63.7309   82.1380   13.6494 C.ar    1  UNL1        0.0990
     23 N          62.7816   83.0227   14.4017 N.ar    1  UNL1       -0.2410
     24 C          62.4648   84.3945   13.8841 C.ar    1  UNL1        0.1136
@<TRIPOS>BOND
     1    15    16    1
     2    16    17    2
     3    16    18    2
     4    16     9    1
     5     9    10    1
     6    10    11    1
     7    11    12    1
     8    12     1    1
     9     1     2    1
    10     2     3   ar
    11     3     4   ar
    12     4     5   ar
    13     5     6    1
    14     5     7   ar
    15     7     8   ar
    16     1    19    1
    17    19    20   ar
    18    20    21   ar
    19    21    22   ar
    20    22    23   ar
    21    23    24   ar
    22    12    13    1
    23    13    14    1
    24    14     9    1
    25     8     2   ar
    26    24    19   ar
@<TRIPOS>MOLECULE
*****
 24 26 0 0 0
SMALL
GASTEIGER

@<TRIPOS>ATOM
      1 N          62.6889   86.2962   11.8883 N.pl3   1  UNL1       -0.2872
      2 C          62.9775   84.9088   12.3799 C.ar    1  UNL1        0.0516
      3 C          62.3534   84.4193   13.6532 C.ar    1  UNL1        0.0157
      4 C          62.6420   83.0318   14.1448 C.ar    1  UNL1        0.0127
      5 C          63.5546   82.1339   13.3633 C.ar    1  UNL1        0.0578
      6 CL         63.8432   80.7464   13.8550 Cl      1  UNL1       -0.0822
      7 C          64.1787   82.6233   12.0902 C.ar    1  UNL1        0.0127
      8 C          63.8901   84.0108   11.5985 C.ar    1  UNL1        0.0157
      9 N          64.3104   89.8549   14.1145 N.3     1  UNL1       -0.1593
     10 C          64.4822   88.4756   14.6783 C.3     1  UNL1        0.0971
     11 C          63.9417   87.2893   13.9362 C.3     1  UNL1        0.0393
     12 C          63.2294   87.4824   12.6304 C.3     1  UNL1        0.0801
     13 C          63.0576   88.8617   12.0666 C.3     1  UNL1        0.0393
     14 C          63.5981   90.0480   12.8087 C.3     1  UNL1        0.0971
     15 C          65.3914   92.2274   15.5987 C.3     1  UNL1        0.1960
     16 S          64.8509   91.0412   14.8566 S.O2    1  UNL1        0.0457
     17 O          66.1670   90.8803   14.1551 O.2     1  UNL1       -0.1572
     18 O          63.5348   91.2020   15.5580 O.2     1  UNL1       -0.1572
     19 C          61.8599   86.4973   10.6545 C.ar    1  UNL1        0.0710
     20 C          62.2941   85.8927    9.3523 C.ar    1  UNL1        0.0180
     21 C          61.4650   86.0939    8.1185 C.ar    1  UNL1        0.0220
     22 C          60.2017   86.8997    8.1870 C.ar    1  UNL1        0.0990
     23 N          59.7675   87.5043    9.4893 N.ar    1  UNL1       -0.2410
     24 C          60.5965   87.3032   10.7230 C.ar    1  UNL1        0.1136
@<TRIPOS>BOND
     1    15    16    1
     2    16    17    2
     3    16    18    2
     4    16     9    1
     5     9    10    1
     6    10    11    1
     7    11    12    1
     8    12     1    1
     9     1     2    1
    10     2     3   ar
    11     3     4   ar
    12     4     5   ar
    13     5     6    1
    14     5     7   ar
    15     7     8   ar
    16     1    19    1
    17    19    20   ar
    18    20    21   ar
    19    21    22   ar
    20    22    23   ar
    21    23    24   ar
    22    12    13    1
    23    13    14    1
    24    14     9    1
    25     8     2   ar
    26    24    19   ar
@<TRIPOS>MOLECULE
*****
 24 26 0 0 0
SMALL
GASTEIGER

@<TRIPOS>ATOM
      1 N          63.1949   89.9792   12.2348 N.pl3   1  UNL1       -0.2872
      2 C          62.2501   89.3778   11.2370 C.ar    1  UNL1        0.0516
      3 C          61.0345   90.1406   10.8007 C.ar    1  UNL1        0.0157
      4 C          60.0897   89.5392    9.8029 C.ar    1  UNL1        0.0127
      5 C          60.3606   88.1750    9.2413 C.ar    1  UNL1        0.0578
      6 CL         59.4157   87.5736    8.2434 Cl      1  UNL1       -0.0822
      7 C          61.5761   87.4121    9.6775 C.ar    1  UNL1        0.0127
      8 C          62.5210   88.0135   10.6754 C.ar    1  UNL1        0.0157
      9 N          65.6060   93.6179   11.1411 N.3     1  UNL1       -0.1593
     10 C          64.7257   92.9658   10.1166 C.3     1  UNL1        0.0971
     11 C          63.9220   91.7529   10.4811 C.3     1  UNL1        0.0393
     12 C          63.9986   91.1921   11.8702 C.3     1  UNL1        0.0801
     13 C          64.8789   91.8443   12.8948 C.3     1  UNL1        0.0393
     14 C          65.6826   93.0572   12.5302 C.3     1  UNL1        0.0971
     15 C          67.2134   96.0438   10.4120 C.3     1  UNL1        0.1960
     16 S          66.4097   94.8308   10.7765 S.O2    1  UNL1        0.0457
     17 O          66.1051   95.4351   12.1153 O.2     1  UNL1       -0.1572
     18 O          66.7143   94.2266    9.4378 O.2     1  UNL1       -0.1572
     19 C          63.3360   89.3677   13.5972 C.ar    1  UNL1        0.0710
     20 C          64.0759   88.0738   13.7655 C.ar    1  UNL1        0.0180
     21 C          64.2169   87.4623   15.1280 C.ar    1  UNL1        0.0220
     22 C          63.6181   88.1447   16.3220 C.ar    1  UNL1        0.0990
     23 N          62.8781   89.4386   16.1536 N.ar    1  UNL1       -0.2410
     24 C          62.7371   90.0501   14.7912 C.ar    1  UNL1        0.1136
@<TRIPOS>BOND
     1    15    16    1
     2    16    17    2
     3    16    18    2
     4    16     9    1
     5     9    10    1
     6    10    11    1
     7    11    12    1
     8    12     1    1
     9     1     2    1
    10     2     3   ar
    11     3     4   ar
    12     4     5   ar
    13     5     6    1
    14     5     7   ar
    15     7     8   ar
    16     1    19    1
    17    19    20   ar
    18    20    21   ar
    19    21    22   ar
    20    22    23   ar
    21    23    24   ar
    22    12    13    1
    23    13    14    1
    24    14     9    1
    25     8     2   ar
    26    24    19   ar
@<TRIPOS>MOLECULE
*****
 24 26 0 0 0
SMALL
GASTEIGER

@<TRIPOS>ATOM
      1 N          62.0063   86.8473   10.8337 N.pl3   1  UNL1       -0.2872
      2 C          62.6220   88.1312   11.3054 C.ar    1  UNL1        0.0516
      3 C          62.5741   89.3508   10.4334 C.ar    1  UNL1        0.0157
      4 C          63.1897   90.6347   10.9051 C.ar    1  UNL1        0.0127
      5 C          63.8533   90.6990   12.2488 C.ar    1  UNL1        0.0578
      6 CL         64.4690   91.9830   12.7205 Cl      1  UNL1       -0.0822
      7 C          63.9012   89.4795   13.1208 C.ar    1  UNL1        0.0127
      8 C          63.2855   88.1955   12.6491 C.ar    1  UNL1        0.0157
      9 N          63.1229   82.9590   12.8045 N.3     1  UNL1       -0.1593
     10 C          62.5173   84.0649   13.6170 C.3     1  UNL1        0.0971
     11 C          62.1451   85.3610   12.9600 C.3     1  UNL1        0.0393
     12 C          62.3785   85.5512   11.4906 C.3     1  UNL1        0.0801
     13 C          62.9841   84.4453   10.6781 C.3     1  UNL1        0.0393
     14 C          63.3563   83.1492   11.3350 C.3     1  UNL1        0.0971
     15 C          63.8673   80.3668   14.1183 C.3     1  UNL1        0.1960
     16 S          63.4951   81.6629   13.4614 S.O2    1  UNL1        0.0457
     17 O          63.8578   82.4024   14.7150 O.2     1  UNL1       -0.1572
     18 O          63.1324   80.9233   12.2078 O.2     1  UNL1       -0.1572
     19 C          61.0184   86.8596    9.7050 C.ar    1  UNL1        0.0710
     20 C          61.2856   86.0579    8.4657 C.ar    1  UNL1        0.0180
     21 C          60.2976   86.0701    7.3370 C.ar    1  UNL1        0.0220
     22 C          59.0426   86.8841    7.4477 C.ar    1  UNL1        0.0990
     23 N          58.7754   87.6857    8.6870 N.ar    1  UNL1       -0.2410
     24 C          59.7632   87.6735    9.8156 C.ar    1  UNL1        0.1136
@<TRIPOS>BOND
     1    15    16    1
     2    16    17    2
     3    16    18    2
     4    16     9    1
     5     9    10    1
     6    10    11    1
     7    11    12    1
     8    12     1    1
     9     1     2    1
    10     2     3   ar
    11     3     4   ar
    12     4     5   ar
    13     5     6    1
    14     5     7   ar
    15     7     8   ar
    16     1    19    1
    17    19    20   ar
    18    20    21   ar
    19    21    22   ar
    20    22    23   ar
    21    23    24   ar
    22    12    13    1
    23    13    14    1
    24    14     9    1
    25     8     2   ar
    26    24    19   ar
@<TRIPOS>MOLECULE
*****
 24 26 0 0 0
SMALL
GASTEIGER

@<TRIPOS>ATOM
      1 N          63.0420   88.7419   12.3853 N.pl3   1  UNL1       -0.2872
      2 C          63.2387   87.2917   12.7144 C.ar    1  UNL1        0.0516
      3 C          62.6525   86.2348   11.8258 C.ar    1  UNL1        0.0157
      4 C          62.8491   84.7847   12.1549 C.ar    1  UNL1        0.0127
      5 C          63.6319   84.3913   13.3725 C.ar    1  UNL1        0.0578
      6 CL         63.8285   82.9411   13.7015 Cl      1  UNL1       -0.0822
      7 C          64.2181   85.4481   14.2610 C.ar    1  UNL1        0.0127
      8 C          64.0215   86.8984   13.9319 C.ar    1  UNL1        0.0157
      9 N          65.8054   91.8385   14.1244 N.3     1  UNL1       -0.1593
     10 C          65.1999   92.0504   12.7685 C.3     1  UNL1        0.0971
     11 C          64.2788   91.0182   12.1888 C.3     1  UNL1        0.0393
     12 C          63.9632   89.7741   12.9650 C.3     1  UNL1        0.0801
     13 C          64.5687   89.5622   14.3208 C.3     1  UNL1        0.0393
     14 C          65.4898   90.5944   14.9005 C.3     1  UNL1        0.0971
     15 C          67.6477   93.9030   15.2837 C.3     1  UNL1        0.1960
     16 S          66.7266   92.8707   14.7040 S.O2    1  UNL1        0.0457
     17 O          66.1392   92.6316   16.0634 O.2     1  UNL1       -0.1572
     18 O          67.3140   93.1099   13.3447 O.2     1  UNL1       -0.1572
     19 C          61.9242   89.1598   11.4766 C.ar    1  UNL1        0.0710
     20 C          61.9808   88.8257   10.0154 C.ar    1  UNL1        0.0180
     21 C          60.8629   89.2437    9.1066 C.ar    1  UNL1        0.0220
     22 C          59.6886   89.9958    9.6591 C.ar    1  UNL1        0.0990
     23 N          59.6321   90.3299   11.1203 N.ar    1  UNL1       -0.2410
     24 C          60.7498   89.9119   12.0291 C.ar    1  UNL1        0.1136
@<TRIPOS>BOND
     1    15    16    1
     2    16    17    2
     3    16    18    2
     4    16     9    1
     5     9    10    1
     6    10    11    1
     7    11    12    1
     8    12     1    1
     9     1     2    1
    10     2     3   ar
    11     3     4   ar
    12     4     5   ar
    13     5     6    1
    14     5     7   ar
    15     7     8   ar
    16     1    19    1
    17    19    20   ar
    18    20    21   ar
    19    21    22   ar
    20    22    23   ar
    21    23    24   ar
    22    12    13    1
    23    13    14    1
    24    14     9    1
    25     8     2   ar
    26    24    19   ar
@<TRIPOS>MOLECULE
*****
 24 26 0 0 0
SMALL
GASTEIGER

@<TRIPOS>ATOM
      1 N          62.8880   93.9678   -1.9502 N.pl3   1  UNL1       -0.2872
      2 C          63.4810   94.4882   -0.6745 C.ar    1  UNL1        0.0516
      3 C          64.4399   93.6402    0.1076 C.ar    1  UNL1        0.0157
      4 C          65.0328   94.1606    1.3834 C.ar    1  UNL1        0.0127
      5 C          64.6669   95.5290    1.8771 C.ar    1  UNL1        0.0578
      6 CL         65.2598   96.0493    3.1529 Cl      1  UNL1       -0.0822
      7 C          63.7080   96.3769    1.0951 C.ar    1  UNL1        0.0127
      8 C          63.1150   95.8565   -0.1807 C.ar    1  UNL1        0.0157
      9 N          58.5655   92.7232   -2.0790 N.3     1  UNL1       -0.1593
     10 C          59.1805   93.4209   -3.2559 C.3     1  UNL1        0.0971
     11 C          60.6213   93.8358   -3.2129 C.3     1  UNL1        0.0393
     12 C          61.4472   93.5529   -1.9932 C.3     1  UNL1        0.0801
     13 C          60.8322   92.8552   -0.8163 C.3     1  UNL1        0.0393
     14 C          59.3914   92.4403   -0.8593 C.3     1  UNL1        0.0971
     15 C          55.6838   91.8934   -2.1649 C.3     1  UNL1        0.1960
     16 S          57.1246   92.3083   -2.1220 S.O2    1  UNL1        0.0457
     17 O          56.9553   92.7489   -0.6982 O.2     1  UNL1       -0.1572
     18 O          57.2940   91.8676   -3.5458 O.2     1  UNL1       -0.1572
     19 C          63.7359   93.8623   -3.1830 C.ar    1  UNL1        0.0710
     20 C          64.0531   92.5154   -3.7621 C.ar    1  UNL1        0.0180
     21 C          64.9011   92.4099   -4.9950 C.ar    1  UNL1        0.0220
     22 C          65.4318   93.6513   -5.6487 C.ar    1  UNL1        0.0990
     23 N          65.1147   94.9981   -5.0695 N.ar    1  UNL1       -0.2410
     24 C          64.2668   95.1036   -3.8367 C.ar    1  UNL1        0.1136
@<TRIPOS>BOND
     1    15    16    1
     2    16    17    2
     3    16    18    2
     4    16     9    1
     5     9    10    1
     6    10    11    1
     7    11    12    1
     8    12     1    1
     9     1     2    1
    10     2     3   ar
    11     3     4   ar
    12     4     5   ar
    13     5     6    1
    14     5     7   ar
    15     7     8   ar
    16     1    19    1
    17    19    20   ar
    18    20    21   ar
    19    21    22   ar
    20    22    23   ar
    21    23    24   ar
    22    12    13    1
    23    13    14    1
    24    14     9    1
    25     8     2   ar
    26    24    19   ar
@<TRIPOS>MOLECULE
*****
 24 26 0 0 0
SMALL
GASTEIGER

@<TRIPOS>ATOM
      1 N          62.5436   84.3666   12.2512 N.pl3   1  UNL1       -0.2872
      2 C          62.6637   82.9185   11.8790 C.ar    1  UNL1        0.0516
      3 C          63.2509   82.5308   10.5542 C.ar    1  UNL1        0.0157
      4 C          63.3711   81.0827   10.1820 C.ar    1  UNL1        0.0127
      5 C          62.9040   80.0223   11.1345 C.ar    1  UNL1        0.0578
      6 CL         63.0242   78.5741   10.7622 Cl      1  UNL1       -0.0822
      7 C          62.3168   80.4099   12.4592 C.ar    1  UNL1        0.0127
      8 C          62.1967   81.8580   12.8315 C.ar    1  UNL1        0.0157
      9 N          60.8055   87.3063    9.3208 N.3     1  UNL1       -0.1593
     10 C          61.6312   86.1551    8.8279 C.3     1  UNL1        0.0971
     11 C          62.2105   85.1752    9.8047 C.3     1  UNL1        0.0393
     12 C          61.9642   85.3465   11.2744 C.3     1  UNL1        0.0801
     13 C          61.1385   86.4976   11.7672 C.3     1  UNL1        0.0393
     14 C          60.5592   87.4775   10.7904 C.3     1  UNL1        0.0971
     15 C          59.6468   89.2660    7.3671 C.3     1  UNL1        0.1960
     16 S          60.2261   88.2861    8.3440 S.O2    1  UNL1        0.0457
     17 O          60.8517   89.4162    9.1066 O.2     1  UNL1       -0.1572
     18 O          59.6005   87.1561    7.5814 O.2     1  UNL1       -0.1572
     19 C          63.0028   84.8348   13.6002 C.ar    1  UNL1        0.0710
     20 C          64.2991   85.5773   13.7351 C.ar    1  UNL1        0.0180
     21 C          64.7583   86.0455   15.0842 C.ar    1  UNL1        0.0220
     22 C          63.9212   85.7711   16.2983 C.ar    1  UNL1        0.0990
     23 N          62.6249   85.0286   16.1633 N.ar    1  UNL1       -0.2410
     24 C          62.1657   84.5604   14.8143 C.ar    1  UNL1        0.1136
@<TRIPOS>BOND
     1    15    16    1
     2    16    17    2
     3    16    18    2
     4    16     9    1
     5     9    10    1
     6    10    11    1
     7    11    12    1
     8    12     1    1
     9     1     2    1
    10     2     3   ar
    11     3     4   ar
    12     4     5   ar
    13     5     6    1
    14     5     7   ar
    15     7     8   ar
    16     1    19    1
    17    19    20   ar
    18    20    21   ar
    19    21    22   ar
    20    22    23   ar
    21    23    24   ar
    22    12    13    1
    23    13    14    1
    24    14     9    1
    25     8     2   ar
    26    24    19   ar
@<TRIPOS>MOLECULE
*****
 24 26 0 0 0
SMALL
GASTEIGER

@<TRIPOS>ATOM
      1 N          62.3357   87.0984   11.3953 N.pl3   1  UNL1       -0.2872
      2 C          63.0233   88.2128   12.1271 C.ar    1  UNL1        0.0516
      3 C          63.7351   87.9354   13.4180 C.ar    1  UNL1        0.0157
      4 C          64.4226   89.0497   14.1498 C.ar    1  UNL1        0.0127
      5 C          64.3984   90.4414   13.5907 C.ar    1  UNL1        0.0578
      6 CL         65.0860   91.5558   14.3225 Cl      1  UNL1       -0.0822
      7 C          63.6866   90.7188   12.2998 C.ar    1  UNL1        0.0127
      8 C          62.9990   89.6044   11.5680 C.ar    1  UNL1        0.0157
      9 N          62.8419   82.8472   12.7813 N.3     1  UNL1       -0.1593
     10 C          62.4619   83.9158   13.7629 C.3     1  UNL1        0.0971
     11 C          62.2931   85.3329   13.3009 C.3     1  UNL1        0.0393
     12 C          62.5045   85.6814   11.8573 C.3     1  UNL1        0.0801
     13 C          62.8845   84.6127   10.8758 C.3     1  UNL1        0.0393
     14 C          63.0533   83.1956   11.3377 C.3     1  UNL1        0.0971
     15 C          63.1794   80.0131   13.7053 C.3     1  UNL1        0.1960
     16 S          63.0107   81.4301   13.2433 S.O2    1  UNL1        0.0457
     17 O          62.9569   80.9597   11.8200 O.2     1  UNL1       -0.1572
     18 O          63.0645   81.9006   14.6666 O.2     1  UNL1       -0.1572
     19 C          61.4794   87.4012   10.2016 C.ar    1  UNL1        0.0710
     20 C          60.9025   88.7740   10.0212 C.ar    1  UNL1        0.0180
     21 C          60.0461   89.0767    8.8274 C.ar    1  UNL1        0.0220
     22 C          59.7668   88.0067    7.8140 C.ar    1  UNL1        0.0990
     23 N          60.3438   86.6339    7.9944 N.ar    1  UNL1       -0.2410
     24 C          61.2001   86.3311    9.1882 C.ar    1  UNL1        0.1136
@<TRIPOS>BOND
     1    15    16    1
     2    16    17    2
     3    16    18    2
     4    16     9    1
     5     9    10    1
     6    10    11    1
     7    11    12    1
     8    12     1    1
     9     1     2    1
    10     2     3   ar
    11     3     4   ar
    12     4     5   ar
    13     5     6    1
    14     5     7   ar
    15     7     8   ar
    16     1    19    1
    17    19    20   ar
    18    20    21   ar
    19    21    22   ar
    20    22    23   ar
    21    23    24   ar
    22    12    13    1
    23    13    14    1
    24    14     9    1
    25     8     2   ar
    26    24    19   ar
