@<TRIPOS>MOLECULE
*****
 36 40 0 0 0
SMALL
GASTEIGER

@<TRIPOS>ATOM
      1 C          62.5473   87.1845   11.7756 C.ar    1  UNL1        0.0058
      2 C          61.5193   86.4970   10.9268 C.ar    1  UNL1        0.0608
      3 C          60.7741   87.2689    9.8785 C.ar    1  UNL1        0.2610
      4 O          59.7461   86.5812    9.0297 O.2     1  UNL1       -0.2670
      5 N          61.0569   88.7284    9.6791 N.ar    1  UNL1       -0.2935
      6 C          60.3117   89.5003    8.6308 C.3     1  UNL1        0.1335
      7 C          62.0849   89.4160   10.5279 C.ar    1  UNL1        0.0625
      8 C          62.3677   90.8756   10.3284 C.ar    1  UNL1        0.0170
      9 C          63.3957   91.5631   11.1772 C.ar    1  UNL1       -0.0009
     10 C          64.1409   90.7912   12.2255 C.ar    1  UNL1       -0.0005
     11 C          63.8581   89.3317   12.4249 C.ar    1  UNL1       -0.0009
     12 C          62.8301   88.6441   11.5761 C.ar    1  UNL1        0.0158
     13 C          62.8632   84.2131   11.5092 C.3     1  UNL1        0.0310
     14 C          63.4505   84.9269   12.6906 C.ar    1  UNL1       -0.0218
     15 C          64.1956   84.1550   13.7389 C.ar    1  UNL1       -0.0043
     16 C          64.7828   84.8687   14.9203 C.ar    1  UNL1       -0.0003
     17 C          64.6249   86.3545   15.0535 C.ar    1  UNL1       -0.0000
     18 C          63.8797   87.1264   14.0052 C.ar    1  UNL1       -0.0003
     19 C          63.2925   86.4126   12.8238 C.ar    1  UNL1       -0.0038
     20 C          65.1689   91.4788   13.0743 C.3     1  UNL1        0.1128
     21 N          64.6882   90.7171   14.2737 N.3     1  UNL1       -0.3125
     22 H          65.4834   90.4791   14.8664 H       1  UNL1        0.1197
     23 H          64.2231   89.8618   13.9693 H       1  UNL1        0.1197
     24 C          66.1968   92.1665   13.9230 C.ar    1  UNL1       -0.0006
     25 C          66.3689   93.6540   13.8349 C.ar    1  UNL1       -0.0015
     26 C          67.3969   94.3416   14.6837 C.ar    1  UNL1        0.0111
     27 C          68.2528   93.5418   15.6205 C.ar    1  UNL1        0.0577
     28 CL         69.2808   94.2295   16.4692 Cl      1  UNL1       -0.0822
     29 C          68.0808   92.0544   15.7085 C.ar    1  UNL1        0.0111
     30 C          67.0528   91.3666   14.8598 C.ar    1  UNL1       -0.0015
     31 C          65.6496   92.2406   11.8749 C.ar    1  UNL1        0.0780
     32 C          64.8328   93.1872   11.0461 C.ar    1  UNL1        0.1152
     33 N          65.7099   93.7212    9.9526 N.ar    1  UNL1       -0.2226
     34 C          67.0688   93.1046   10.1056 C.ar    1  UNL1        0.1784
     35 N          67.0315   92.1896   11.2936 N.ar    1  UNL1       -0.3088
     36 C          68.1752   91.3678   11.8098 C.3     1  UNL1        0.1318
@<TRIPOS>BOND
     1    13    14    1
     2    14    15   ar
     3    15    16   ar
     4    16    17   ar
     5    17    18   ar
     6    18    19   ar
     7    19     1    1
     8     1     2   ar
     9     2     3   ar
    10     3     4    2
    11     3     5   ar
    12     5     6    1
    13     5     7   ar
    14     7     8   ar
    15     8     9   ar
    16     9    10   ar
    17    10    20    1
    18    20    21    1
    19    20    24    1
    20    24    25   ar
    21    25    26   ar
    22    26    27   ar
    23    27    28    1
    24    27    29   ar
    25    29    30   ar
    26    20    31    1
    27    31    32   ar
    28    32    33   ar
    29    33    34   ar
    30    34    35   ar
    31    35    36    1
    32    10    11   ar
    33    11    12   ar
    34    19    14   ar
    35    12     1   ar
    36    12     7   ar
    37    30    24   ar
    38    35    31   ar
    39    21    22    1
    40    21    23    1
@<TRIPOS>MOLECULE
*****
 36 40 0 0 0
SMALL
GASTEIGER

@<TRIPOS>ATOM
      1 C          62.0764   86.5412   11.0060 C.ar    1  UNL1        0.0058
      2 C          61.0761   85.9352   10.0668 C.ar    1  UNL1        0.0608
      3 C          60.2608   86.8172    9.1683 C.ar    1  UNL1        0.2610
      4 O          59.2604   86.2111    8.2291 O.2     1  UNL1       -0.2670
      5 N          60.4458   88.3051    9.2090 N.ar    1  UNL1       -0.2935
      6 C          59.6304   89.1871    8.3105 C.3     1  UNL1        0.1335
      7 C          61.4461   88.9112   10.1483 C.ar    1  UNL1        0.0625
      8 C          61.6311   90.3991   10.1890 C.ar    1  UNL1        0.0170
      9 C          62.6314   91.0051   11.1282 C.ar    1  UNL1       -0.0009
     10 C          63.4467   90.1231   12.0267 C.ar    1  UNL1       -0.0005
     11 C          63.2617   88.6352   11.9860 C.ar    1  UNL1       -0.0009
     12 C          62.2614   88.0292   11.0468 C.ar    1  UNL1        0.0158
     13 C          63.4883   84.1464    9.8783 C.3     1  UNL1        0.0310
     14 C          63.5977   84.4618   11.3407 C.ar    1  UNL1       -0.0218
     15 C          64.4131   83.5798   12.2392 C.ar    1  UNL1       -0.0043
     16 C          64.5225   83.8952   13.7016 C.ar    1  UNL1       -0.0003
     17 C          63.8165   85.0926   14.2655 C.ar    1  UNL1       -0.0000
     18 C          63.0011   85.9746   13.3670 C.ar    1  UNL1       -0.0003
     19 C          62.8918   85.6592   11.9045 C.ar    1  UNL1       -0.0038
     20 C          64.4471   90.7292   12.9659 C.3     1  UNL1        0.1128
     21 N          65.1296   91.3961   11.8087 N.3     1  UNL1       -0.3125
     22 H          65.4598   92.3180   12.0940 H       1  UNL1        0.1197
     23 H          64.4708   91.4949   11.0363 H       1  UNL1        0.1197
     24 C          65.4473   91.3352   13.9051 C.ar    1  UNL1       -0.0006
     25 C          66.8803   91.4773   13.4851 C.ar    1  UNL1       -0.0015
     26 C          67.8806   92.0833   14.4243 C.ar    1  UNL1        0.0111
     27 C          67.4480   92.5472   15.7836 C.ar    1  UNL1        0.0577
     28 CL         68.4482   93.1532   16.7228 Cl      1  UNL1       -0.0822
     29 C          66.0150   92.4051   16.2036 C.ar    1  UNL1        0.0111
     30 C          65.0147   91.7991   15.2644 C.ar    1  UNL1       -0.0015
     31 C          63.7645   90.0623   14.1231 C.ar    1  UNL1        0.0780
     32 C          62.4383   90.4499   14.7071 C.ar    1  UNL1        0.1152
     33 N          62.1424   89.5178   15.8446 N.ar    1  UNL1       -0.2226
     34 C          63.2858   88.5541   15.9636 C.ar    1  UNL1        0.1784
     35 N          64.2882   88.8906   14.8997 N.ar    1  UNL1       -0.3088
     36 C          65.5865   88.1803   14.6553 C.3     1  UNL1        0.1318
@<TRIPOS>BOND
     1    13    14    1
     2    14    15   ar
     3    15    16   ar
     4    16    17   ar
     5    17    18   ar
     6    18    19   ar
     7    19     1    1
     8     1     2   ar
     9     2     3   ar
    10     3     4    2
    11     3     5   ar
    12     5     6    1
    13     5     7   ar
    14     7     8   ar
    15     8     9   ar
    16     9    10   ar
    17    10    20    1
    18    20    21    1
    19    20    24    1
    20    24    25   ar
    21    25    26   ar
    22    26    27   ar
    23    27    28    1
    24    27    29   ar
    25    29    30   ar
    26    20    31    1
    27    31    32   ar
    28    32    33   ar
    29    33    34   ar
    30    34    35   ar
    31    35    36    1
    32    10    11   ar
    33    11    12   ar
    34    19    14   ar
    35    12     1   ar
    36    12     7   ar
    37    30    24   ar
    38    35    31   ar
    39    21    22    1
    40    21    23    1
@<TRIPOS>MOLECULE
*****
 36 40 0 0 0
SMALL
GASTEIGER

@<TRIPOS>ATOM
      1 C          62.6912   88.8870   11.5011 C.ar    1  UNL1        0.0058
      2 C          63.0406   90.3448   11.4512 C.ar    1  UNL1        0.0608
      3 C          63.9395   90.9369   12.4959 C.ar    1  UNL1        0.2610
      4 O          64.2889   92.3948   12.4460 O.2     1  UNL1       -0.2670
      5 N          64.4890   90.0710   13.5906 N.ar    1  UNL1       -0.2935
      6 C          65.3878   90.6631   14.6354 C.3     1  UNL1        0.1335
      7 C          64.1396   88.6131   13.6406 C.ar    1  UNL1        0.0625
      8 C          64.6891   87.7473   14.7353 C.ar    1  UNL1        0.0170
      9 C          64.3397   86.2894   14.7852 C.ar    1  UNL1       -0.0009
     10 C          63.4408   85.6974   13.7404 C.ar    1  UNL1       -0.0005
     11 C          62.8913   86.5632   12.6457 C.ar    1  UNL1       -0.0009
     12 C          63.2407   88.0211   12.5958 C.ar    1  UNL1        0.0158
     13 C          59.7289   89.3405   11.6391 C.3     1  UNL1        0.0310
     14 C          60.3113   88.5217   10.5253 C.ar    1  UNL1       -0.0218
     15 C          59.4124   87.9296    9.4806 C.ar    1  UNL1       -0.0043
     16 C          59.9946   87.1108    8.3668 C.ar    1  UNL1       -0.0003
     17 C          61.4759   86.8841    8.2977 C.ar    1  UNL1       -0.0000
     18 C          62.3747   87.4761    9.3425 C.ar    1  UNL1       -0.0003
     19 C          61.7924   88.2949   10.4563 C.ar    1  UNL1       -0.0038
     20 C          63.0914   84.2394   13.7904 C.3     1  UNL1        0.1128
     21 N          62.5793   84.4101   15.1899 N.3     1  UNL1       -0.3125
     22 H          61.7606   83.8174   15.3269 H       1  UNL1        0.1197
     23 H          62.3221   85.3854   15.3412 H       1  UNL1        0.1197
     24 C          62.7421   82.7816   13.8403 C.ar    1  UNL1       -0.0006
     25 C          61.3263   82.3580   14.0976 C.ar    1  UNL1       -0.0015
     26 C          60.9770   80.9001   14.1476 C.ar    1  UNL1        0.0111
     27 C          62.0433   79.8658   13.9401 C.ar    1  UNL1        0.0577
     28 CL         61.6940   78.4079   13.9900 Cl      1  UNL1       -0.0822
     29 C          63.4591   80.2893   13.6828 C.ar    1  UNL1        0.0111
     30 C          63.8085   81.7473   13.6329 C.ar    1  UNL1       -0.0015
     31 C          63.6035   84.0688   12.3909 C.ar    1  UNL1        0.0780
     32 C          64.9810   83.6175   12.0050 C.ar    1  UNL1        0.1152
     33 N          65.0569   83.5893   10.5071 N.ar    1  UNL1       -0.2226
     34 C          63.7263   84.0232    9.9673 C.ar    1  UNL1        0.1784
     35 N          62.8281   84.3195   11.1315 N.ar    1  UNL1       -0.3088
     36 C          61.4044   84.7848   11.0507 C.3     1  UNL1        0.1318
@<TRIPOS>BOND
     1    13    14    1
     2    14    15   ar
     3    15    16   ar
     4    16    17   ar
     5    17    18   ar
     6    18    19   ar
     7    19     1    1
     8     1     2   ar
     9     2     3   ar
    10     3     4    2
    11     3     5   ar
    12     5     6    1
    13     5     7   ar
    14     7     8   ar
    15     8     9   ar
    16     9    10   ar
    17    10    20    1
    18    20    21    1
    19    20    24    1
    20    24    25   ar
    21    25    26   ar
    22    26    27   ar
    23    27    28    1
    24    27    29   ar
    25    29    30   ar
    26    20    31    1
    27    31    32   ar
    28    32    33   ar
    29    33    34   ar
    30    34    35   ar
    31    35    36    1
    32    10    11   ar
    33    11    12   ar
    34    19    14   ar
    35    12     1   ar
    36    12     7   ar
    37    30    24   ar
    38    35    31   ar
    39    21    22    1
    40    21    23    1
@<TRIPOS>MOLECULE
*****
 36 40 0 0 0
SMALL
GASTEIGER

@<TRIPOS>ATOM
      1 C          64.7828   90.3698   14.4031 C.ar    1  UNL1        0.0058
      2 C          65.6850   91.2943   15.1654 C.ar    1  UNL1        0.0608
      3 C          66.1730   92.5611   14.5275 C.ar    1  UNL1        0.2610
      4 O          67.0753   93.4856   15.2899 O.2     1  UNL1       -0.2670
      5 N          65.7587   92.9035   13.1271 N.ar    1  UNL1       -0.2935
      6 C          66.2466   94.1704   12.4892 C.3     1  UNL1        0.1335
      7 C          64.8563   91.9791   12.3647 C.ar    1  UNL1        0.0625
      8 C          64.4420   92.3215   10.9643 C.ar    1  UNL1        0.0170
      9 C          63.5397   91.3971   10.2019 C.ar    1  UNL1       -0.0009
     10 C          63.0518   90.1302   10.8399 C.ar    1  UNL1       -0.0005
     11 C          63.4661   89.7878   12.2403 C.ar    1  UNL1       -0.0009
     12 C          64.3684   90.7122   13.0026 C.ar    1  UNL1        0.0158
     13 C          63.0360   90.4933   16.8390 C.3     1  UNL1        0.0310
     14 C          63.4214   89.1647   16.2590 C.ar    1  UNL1       -0.0218
     15 C          62.9335   87.8978   16.8969 C.ar    1  UNL1       -0.0043
     16 C          63.3189   86.5693   16.3170 C.ar    1  UNL1       -0.0003
     17 C          64.1923   86.5075   15.0990 C.ar    1  UNL1       -0.0000
     18 C          64.6803   87.7744   14.4610 C.ar    1  UNL1       -0.0003
     19 C          64.2948   89.1030   15.0410 C.ar    1  UNL1       -0.0038
     20 C          62.1494   89.2058   10.0774 C.3     1  UNL1        0.1128
     21 N          63.3330   88.6670    9.3299 N.3     1  UNL1       -0.3125
     22 H          63.2088   87.6670    9.1718 H       1  UNL1        0.1197
     23 H          64.1799   88.8222    9.8767 H       1  UNL1        0.1197
     24 C          61.2471   88.2814    9.3150 C.ar    1  UNL1       -0.0006
     25 C          61.5342   86.8094    9.2844 C.ar    1  UNL1       -0.0015
     26 C          60.6318   85.8850    8.5221 C.ar    1  UNL1        0.0111
     27 C          59.4425   86.4325    7.7902 C.ar    1  UNL1        0.0577
     28 CL         58.5402   85.5081    7.0278 Cl      1  UNL1       -0.0822
     29 C          59.1554   87.9044    7.8208 C.ar    1  UNL1        0.0111
     30 C          60.0577   88.8289    8.5832 C.ar    1  UNL1       -0.0015
     31 C          60.9659   89.7445   10.8250 C.ar    1  UNL1        0.0780
     32 C          60.3995   91.1279   10.7004 C.ar    1  UNL1        0.1152
     33 N          59.2244   91.2329   11.6269 N.ar    1  UNL1       -0.2226
     34 C          59.0645   89.9143   12.3240 C.ar    1  UNL1        0.1784
     35 N          60.1408   88.9945   11.8284 N.ar    1  UNL1       -0.3088
     36 C          60.3546   87.5741   12.2604 C.3     1  UNL1        0.1318
@<TRIPOS>BOND
     1    13    14    1
     2    14    15   ar
     3    15    16   ar
     4    16    17   ar
     5    17    18   ar
     6    18    19   ar
     7    19     1    1
     8     1     2   ar
     9     2     3   ar
    10     3     4    2
    11     3     5   ar
    12     5     6    1
    13     5     7   ar
    14     7     8   ar
    15     8     9   ar
    16     9    10   ar
    17    10    20    1
    18    20    21    1
    19    20    24    1
    20    24    25   ar
    21    25    26   ar
    22    26    27   ar
    23    27    28    1
    24    27    29   ar
    25    29    30   ar
    26    20    31    1
    27    31    32   ar
    28    32    33   ar
    29    33    34   ar
    30    34    35   ar
    31    35    36    1
    32    10    11   ar
    33    11    12   ar
    34    19    14   ar
    35    12     1   ar
    36    12     7   ar
    37    30    24   ar
    38    35    31   ar
    39    21    22    1
    40    21    23    1
@<TRIPOS>MOLECULE
*****
 36 40 0 0 0
SMALL
GASTEIGER

@<TRIPOS>ATOM
      1 C          61.8794   88.5343    9.9884 C.ar    1  UNL1        0.0058
      2 C          62.0661   90.0009    9.7357 C.ar    1  UNL1        0.0608
      3 C          62.8791   90.8284   10.6867 C.ar    1  UNL1        0.2610
      4 O          63.0658   92.2951   10.4339 O.2     1  UNL1       -0.2670
      5 N          63.5055   90.1891   11.8903 N.ar    1  UNL1       -0.2935
      6 C          64.3186   91.0165   12.8413 C.3     1  UNL1        0.1335
      7 C          63.3189   88.7223   12.1431 C.ar    1  UNL1        0.0625
      8 C          63.9453   88.0830   13.3468 C.ar    1  UNL1        0.0170
      9 C          63.7586   86.6163   13.5995 C.ar    1  UNL1       -0.0009
     10 C          62.9456   85.7889   12.6486 C.ar    1  UNL1       -0.0005
     11 C          62.3191   86.4282   11.4449 C.ar    1  UNL1       -0.0009
     12 C          62.5058   87.8949   11.1922 C.ar    1  UNL1        0.0158
     13 C          63.1252   86.1828    8.6032 C.3     1  UNL1        0.0310
     14 C          61.6892   86.5312    8.3449 C.ar    1  UNL1       -0.0218
     15 C          60.8761   85.7037    7.3939 C.ar    1  UNL1       -0.0043
     16 C          59.4402   86.0520    7.1356 C.ar    1  UNL1       -0.0003
     17 C          58.8173   87.2278    7.8282 C.ar    1  UNL1       -0.0000
     18 C          59.6303   88.0552    8.7792 C.ar    1  UNL1       -0.0003
     19 C          61.0663   87.7068    9.0375 C.ar    1  UNL1       -0.0038
     20 C          62.7589   84.3221   12.9013 C.3     1  UNL1        0.1128
     21 N          62.6932   84.0757   11.4232 N.3     1  UNL1       -0.3125
     22 H          63.1517   83.1910   11.2053 H       1  UNL1        0.1197
     23 H          63.1657   84.8338   10.9308 H       1  UNL1        0.1197
     24 C          62.5723   82.8555   13.1541 C.ar    1  UNL1       -0.0006
     25 C          63.3841   81.8531   12.3884 C.ar    1  UNL1       -0.0015
     26 C          63.1975   80.3864   12.6412 C.ar    1  UNL1        0.0111
     27 C          62.1990   79.9220   13.6598 C.ar    1  UNL1        0.0577
     28 CL         62.0124   78.4553   13.9126 Cl      1  UNL1       -0.0822
     29 C          61.3872   80.9243   14.4255 C.ar    1  UNL1        0.0111
     30 C          61.5738   82.3910   14.1727 C.ar    1  UNL1       -0.0015
     31 C          62.8246   84.5686   14.3795 C.ar    1  UNL1        0.0780
     32 C          61.6802   84.9836   15.2559 C.ar    1  UNL1        0.1152
     33 N          62.1945   85.1148   16.6589 N.ar    1  UNL1       -0.2226
     34 C          63.6569   84.7808   16.6495 C.ar    1  UNL1        0.1784
     35 N          64.0463   84.4432   15.2408 N.ar    1  UNL1       -0.3088
     36 C          65.4167   84.0495   14.7751 C.3     1  UNL1        0.1318
@<TRIPOS>BOND
     1    13    14    1
     2    14    15   ar
     3    15    16   ar
     4    16    17   ar
     5    17    18   ar
     6    18    19   ar
     7    19     1    1
     8     1     2   ar
     9     2     3   ar
    10     3     4    2
    11     3     5   ar
    12     5     6    1
    13     5     7   ar
    14     7     8   ar
    15     8     9   ar
    16     9    10   ar
    17    10    20    1
    18    20    21    1
    19    20    24    1
    20    24    25   ar
    21    25    26   ar
    22    26    27   ar
    23    27    28    1
    24    27    29   ar
    25    29    30   ar
    26    20    31    1
    27    31    32   ar
    28    32    33   ar
    29    33    34   ar
    30    34    35   ar
    31    35    36    1
    32    10    11   ar
    33    11    12   ar
    34    19    14   ar
    35    12     1   ar
    36    12     7   ar
    37    30    24   ar
    38    35    31   ar
    39    21    22    1
    40    21    23    1
@<TRIPOS>MOLECULE
*****
 36 40 0 0 0
SMALL
GASTEIGER

@<TRIPOS>ATOM
      1 C          62.1969   88.8279   10.3017 C.ar    1  UNL1        0.0058
      2 C          62.4419   90.2985   10.1372 C.ar    1  UNL1        0.0608
      3 C          63.2579   91.0412   11.1533 C.ar    1  UNL1        0.2610
      4 O          63.5029   92.5120   10.9887 O.2     1  UNL1       -0.2670
      5 N          63.8290   90.3133   12.3340 N.ar    1  UNL1       -0.2935
      6 C          64.6450   91.0560   13.3501 C.3     1  UNL1        0.1335
      7 C          63.5840   88.8425   12.4985 C.ar    1  UNL1        0.0625
      8 C          64.1551   88.1146   13.6792 C.ar    1  UNL1        0.0170
      9 C          63.9101   86.6439   13.8437 C.ar    1  UNL1       -0.0009
     10 C          63.0941   85.9012   12.8275 C.ar    1  UNL1       -0.0005
     11 C          62.5230   86.6292   11.6469 C.ar    1  UNL1       -0.0009
     12 C          62.7680   88.0998   11.4824 C.ar    1  UNL1        0.0158
     13 C          59.6413   90.0148    9.2721 C.3     1  UNL1        0.0310
     14 C          60.1032   88.6786    8.7708 C.ar    1  UNL1       -0.0218
     15 C          59.2872   87.9359    7.7547 C.ar    1  UNL1       -0.0043
     16 C          59.7489   86.5997    7.2533 C.ar    1  UNL1       -0.0003
     17 C          61.0268   86.0062    7.7681 C.ar    1  UNL1       -0.0000
     18 C          61.8428   86.7489    8.7843 C.ar    1  UNL1       -0.0003
     19 C          61.3809   88.0851    9.2856 C.ar    1  UNL1       -0.0038
     20 C          62.8491   84.4305   12.9921 C.3     1  UNL1        0.1128
     21 N          62.8695   84.2603   11.5020 N.3     1  UNL1       -0.3125
     22 H          63.3147   83.3732   11.2671 H       1  UNL1        0.1197
     23 H          63.3940   85.0263   11.0794 H       1  UNL1        0.1197
     24 C          62.6042   82.9598   13.1567 C.ar    1  UNL1       -0.0006
     25 C          61.6523   82.4711   14.2080 C.ar    1  UNL1       -0.0015
     26 C          61.4074   81.0004   14.3726 C.ar    1  UNL1        0.0111
     27 C          62.1143   80.0185   13.4860 C.ar    1  UNL1        0.0577
     28 CL         61.8693   78.5478   13.6506 Cl      1  UNL1       -0.0822
     29 C          63.0661   80.5072   12.4347 C.ar    1  UNL1        0.0111
     30 C          63.3111   81.9779   12.2701 C.ar    1  UNL1       -0.0015
     31 C          62.8288   84.6007   14.4823 C.ar    1  UNL1        0.0780
     32 C          61.6780   85.1153   15.2953 C.ar    1  UNL1        0.1152
     33 N          62.0937   85.1188   16.7366 N.ar    1  UNL1       -0.2226
     34 C          63.5013   84.6063   16.8143 C.ar    1  UNL1        0.1784
     35 N          63.9556   84.2861   15.4211 N.ar    1  UNL1       -0.3088
     36 C          65.3006   83.7461   15.0345 C.3     1  UNL1        0.1318
@<TRIPOS>BOND
     1    13    14    1
     2    14    15   ar
     3    15    16   ar
     4    16    17   ar
     5    17    18   ar
     6    18    19   ar
     7    19     1    1
     8     1     2   ar
     9     2     3   ar
    10     3     4    2
    11     3     5   ar
    12     5     6    1
    13     5     7   ar
    14     7     8   ar
    15     8     9   ar
    16     9    10   ar
    17    10    20    1
    18    20    21    1
    19    20    24    1
    20    24    25   ar
    21    25    26   ar
    22    26    27   ar
    23    27    28    1
    24    27    29   ar
    25    29    30   ar
    26    20    31    1
    27    31    32   ar
    28    32    33   ar
    29    33    34   ar
    30    34    35   ar
    31    35    36    1
    32    10    11   ar
    33    11    12   ar
    34    19    14   ar
    35    12     1   ar
    36    12     7   ar
    37    30    24   ar
    38    35    31   ar
    39    21    22    1
    40    21    23    1
@<TRIPOS>MOLECULE
*****
 36 40 0 0 0
SMALL
GASTEIGER

@<TRIPOS>ATOM
      1 C          63.8397   86.4786   14.1861 C.ar    1  UNL1        0.0058
      2 C          64.4965   85.5891   15.1996 C.ar    1  UNL1        0.0608
      3 C          64.4935   84.1016   15.0060 C.ar    1  UNL1        0.2610
      4 O          65.1504   83.2121   16.0196 O.2     1  UNL1       -0.2670
      5 N          63.8337   83.5037   13.7989 N.ar    1  UNL1       -0.2935
      6 C          63.8307   82.0163   13.6054 C.3     1  UNL1        0.1335
      7 C          63.1768   84.3933   12.7853 C.ar    1  UNL1        0.0625
      8 C          62.5170   83.7954   11.5783 C.ar    1  UNL1        0.0170
      9 C          61.8602   84.6849   10.5648 C.ar    1  UNL1       -0.0009
     10 C          61.8632   86.1724   10.7584 C.ar    1  UNL1       -0.0005
     11 C          62.5230   86.7703   11.9654 C.ar    1  UNL1       -0.0009
     12 C          63.1798   85.8807   12.9789 C.ar    1  UNL1        0.0158
     13 C          63.0167   87.6498   16.8226 C.3     1  UNL1        0.0310
     14 C          63.4312   88.5517   15.6979 C.ar    1  UNL1       -0.0218
     15 C          63.4342   90.0391   15.8915 C.ar    1  UNL1       -0.0043
     16 C          63.8487   90.9410   14.7668 C.ar    1  UNL1       -0.0003
     17 C          64.2602   90.3554   13.4485 C.ar    1  UNL1       -0.0000
     18 C          64.2572   88.8680   13.2550 C.ar    1  UNL1       -0.0003
     19 C          63.8427   87.9661   14.3797 C.ar    1  UNL1       -0.0038
     20 C          61.2063   87.0620    9.7448 C.3     1  UNL1        0.1128
     21 N          61.5685   86.0924    8.6591 N.3     1  UNL1       -0.3125
     22 H          60.8155   86.0544    7.9721 H       1  UNL1        0.1197
     23 H          61.7075   85.1662    9.0629 H       1  UNL1        0.1197
     24 C          60.5495   87.9515    8.7313 C.ar    1  UNL1       -0.0006
     25 C          59.6247   87.3652    7.7060 C.ar    1  UNL1       -0.0015
     26 C          58.9678   88.2548    6.6925 C.ar    1  UNL1        0.0111
     27 C          59.2357   89.7306    6.7042 C.ar    1  UNL1        0.0577
     28 CL         58.5789   90.6202    5.6907 Cl      1  UNL1       -0.0822
     29 C          60.1604   90.3169    7.7294 C.ar    1  UNL1        0.0111
     30 C          60.8174   89.4273    8.7430 C.ar    1  UNL1       -0.0015
     31 C          60.8441   88.0315   10.8305 C.ar    1  UNL1        0.0780
     32 C          59.6668   87.9221   11.7535 C.ar    1  UNL1        0.1152
     33 N          59.6907   89.1037   12.6773 N.ar    1  UNL1       -0.2226
     34 C          60.8828   89.9434   12.3252 C.ar    1  UNL1        0.1784
     35 N          61.5957   89.2807   11.1838 N.ar    1  UNL1       -0.3088
     36 C          62.8413   89.7796   10.5134 C.3     1  UNL1        0.1318
@<TRIPOS>BOND
     1    13    14    1
     2    14    15   ar
     3    15    16   ar
     4    16    17   ar
     5    17    18   ar
     6    18    19   ar
     7    19     1    1
     8     1     2   ar
     9     2     3   ar
    10     3     4    2
    11     3     5   ar
    12     5     6    1
    13     5     7   ar
    14     7     8   ar
    15     8     9   ar
    16     9    10   ar
    17    10    20    1
    18    20    21    1
    19    20    24    1
    20    24    25   ar
    21    25    26   ar
    22    26    27   ar
    23    27    28    1
    24    27    29   ar
    25    29    30   ar
    26    20    31    1
    27    31    32   ar
    28    32    33   ar
    29    33    34   ar
    30    34    35   ar
    31    35    36    1
    32    10    11   ar
    33    11    12   ar
    34    19    14   ar
    35    12     1   ar
    36    12     7   ar
    37    30    24   ar
    38    35    31   ar
    39    21    22    1
    40    21    23    1
@<TRIPOS>MOLECULE
*****
 36 40 0 0 0
SMALL
GASTEIGER

@<TRIPOS>ATOM
      1 C          66.5258   92.6061   12.7823 C.ar    1  UNL1        0.0058
      2 C          67.2884   93.2348   13.9106 C.ar    1  UNL1        0.0608
      3 C          66.8182   93.0582   15.3240 C.ar    1  UNL1        0.2610
      4 O          67.5809   93.6870   16.4523 O.2     1  UNL1       -0.2670
      5 N          65.5854   92.2528   15.6091 N.ar    1  UNL1       -0.2935
      6 C          65.1152   92.0761   17.0225 C.3     1  UNL1        0.1335
      7 C          64.8226   91.6240   14.4808 C.ar    1  UNL1        0.0625
      8 C          63.5898   90.8185   14.7660 C.ar    1  UNL1        0.0170
      9 C          62.8272   90.1898   13.6377 C.ar    1  UNL1       -0.0009
     10 C          63.2974   90.3665   12.2243 C.ar    1  UNL1       -0.0005
     11 C          64.5302   91.1719   11.9392 C.ar    1  UNL1       -0.0009
     12 C          65.2929   91.8006   13.0674 C.ar    1  UNL1        0.0158
     13 C          65.6690   95.0104   11.2059 C.3     1  UNL1        0.0310
     14 C          66.5676   93.9849   10.5807 C.ar    1  UNL1       -0.0218
     15 C          67.0378   94.1616    9.1673 C.ar    1  UNL1       -0.0043
     16 C          67.9364   93.1361    8.5421 C.ar    1  UNL1       -0.0003
     17 C          68.3648   91.9339    9.3304 C.ar    1  UNL1       -0.0000
     18 C          67.8946   91.7572   10.7437 C.ar    1  UNL1       -0.0003
     19 C          66.9960   92.7828   11.3689 C.ar    1  UNL1       -0.0038
     20 C          62.5347   89.7377   11.0960 C.3     1  UNL1        0.1128
     21 N          62.5384   91.0468   10.3638 N.3     1  UNL1       -0.3125
     22 H          62.6416   90.8766    9.3635 H       1  UNL1        0.1197
     23 H          63.3162   91.6185   10.6935 H       1  UNL1        0.1197
     24 C          61.7720   89.1089    9.9678 C.ar    1  UNL1       -0.0006
     25 C          60.6445   89.8544    9.3173 C.ar    1  UNL1       -0.0015
     26 C          59.8818   89.2256    8.1891 C.ar    1  UNL1        0.0111
     27 C          60.2466   87.8513    7.7113 C.ar    1  UNL1        0.0577
     28 CL         59.4839   87.2225    6.5831 Cl      1  UNL1       -0.0822
     29 C          61.3740   87.1058    8.3618 C.ar    1  UNL1        0.0111
     30 C          62.1367   87.7346    9.4900 C.ar    1  UNL1       -0.0015
     31 C          62.5309   88.4286   11.8282 C.ar    1  UNL1        0.0780
     32 C          63.7300   87.7401   12.4097 C.ar    1  UNL1        0.1152
     33 N          63.2676   86.4640   13.0484 N.ar    1  UNL1       -0.2226
     34 C          61.7826   86.3638   12.8615 C.ar    1  UNL1        0.1784
     35 N          61.3273   87.5779   12.1074 N.ar    1  UNL1       -0.3088
     36 C          59.9163   87.8872   11.7034 C.3     1  UNL1        0.1318
@<TRIPOS>BOND
     1    13    14    1
     2    14    15   ar
     3    15    16   ar
     4    16    17   ar
     5    17    18   ar
     6    18    19   ar
     7    19     1    1
     8     1     2   ar
     9     2     3   ar
    10     3     4    2
    11     3     5   ar
    12     5     6    1
    13     5     7   ar
    14     7     8   ar
    15     8     9   ar
    16     9    10   ar
    17    10    20    1
    18    20    21    1
    19    20    24    1
    20    24    25   ar
    21    25    26   ar
    22    26    27   ar
    23    27    28    1
    24    27    29   ar
    25    29    30   ar
    26    20    31    1
    27    31    32   ar
    28    32    33   ar
    29    33    34   ar
    30    34    35   ar
    31    35    36    1
    32    10    11   ar
    33    11    12   ar
    34    19    14   ar
    35    12     1   ar
    36    12     7   ar
    37    30    24   ar
    38    35    31   ar
    39    21    22    1
    40    21    23    1
@<TRIPOS>MOLECULE
*****
 36 40 0 0 0
SMALL
GASTEIGER

@<TRIPOS>ATOM
      1 C          62.6673   84.8652   12.2848 C.ar    1  UNL1        0.0058
      2 C          62.3381   83.5187   12.8581 C.ar    1  UNL1        0.0608
      3 C          62.4854   83.2741   14.3306 C.ar    1  UNL1        0.2610
      4 O          62.1562   81.9276   14.9039 O.2     1  UNL1       -0.2670
      5 N          62.9618   84.3760   15.2300 N.ar    1  UNL1       -0.2935
      6 C          63.1091   84.1314   16.7025 C.3     1  UNL1        0.1335
      7 C          63.2910   85.7225   14.6567 C.ar    1  UNL1        0.0625
      8 C          63.7675   86.8244   15.5561 C.ar    1  UNL1        0.0170
      9 C          64.0966   88.1709   14.9828 C.ar    1  UNL1       -0.0009
     10 C          63.9494   88.4155   13.5103 C.ar    1  UNL1       -0.0005
     11 C          63.4729   87.3136   12.6109 C.ar    1  UNL1       -0.0009
     12 C          63.1437   85.9671   13.1842 C.ar    1  UNL1        0.0158
     13 C          64.4892   83.4808   10.3447 C.3     1  UNL1        0.0310
     14 C          63.4309   84.4176    9.8422 C.ar    1  UNL1       -0.0218
     15 C          63.2837   84.6622    8.3696 C.ar    1  UNL1       -0.0043
     16 C          62.2254   85.5990    7.8671 C.ar    1  UNL1       -0.0003
     17 C          61.3144   86.2912    8.8372 C.ar    1  UNL1       -0.0000
     18 C          61.4617   86.0466   10.3097 C.ar    1  UNL1       -0.0003
     19 C          62.5200   85.1098   10.8122 C.ar    1  UNL1       -0.0038
     20 C          64.2786   89.7620   12.9370 C.3     1  UNL1        0.1128
     21 N          65.4211   89.8927   13.9001 N.3     1  UNL1       -0.3125
     22 H          66.1995   90.3666   13.4419 H       1  UNL1        0.1197
     23 H          65.7185   88.9651   14.2027 H       1  UNL1        0.1197
     24 C          64.6077   91.1085   12.3638 C.ar    1  UNL1       -0.0006
     25 C          65.4113   92.0890   13.1657 C.ar    1  UNL1       -0.0015
     26 C          65.7404   93.4354   12.5925 C.ar    1  UNL1        0.0111
     27 C          65.2660   93.8015   11.2174 C.ar    1  UNL1        0.0577
     28 CL         65.5952   95.1480   10.6441 Cl      1  UNL1       -0.0822
     29 C          64.4625   92.8211   10.4155 C.ar    1  UNL1        0.0111
     30 C          64.1333   91.4745   10.9887 C.ar    1  UNL1       -0.0015
     31 C          63.1360   89.6313   11.9740 C.ar    1  UNL1        0.0780
     32 C          63.2506   89.4176   10.4937 C.ar    1  UNL1        0.1152
     33 N          61.8636   89.3456    9.9270 N.ar    1  UNL1       -0.2226
     34 C          60.8918   89.5148   11.0571 C.ar    1  UNL1        0.1784
     35 N          61.6781   89.6913   12.3222 N.ar    1  UNL1       -0.3088
     36 C          61.1070   89.8926   13.6945 C.3     1  UNL1        0.1318
@<TRIPOS>BOND
     1    13    14    1
     2    14    15   ar
     3    15    16   ar
     4    16    17   ar
     5    17    18   ar
     6    18    19   ar
     7    19     1    1
     8     1     2   ar
     9     2     3   ar
    10     3     4    2
    11     3     5   ar
    12     5     6    1
    13     5     7   ar
    14     7     8   ar
    15     8     9   ar
    16     9    10   ar
    17    10    20    1
    18    20    21    1
    19    20    24    1
    20    24    25   ar
    21    25    26   ar
    22    26    27   ar
    23    27    28    1
    24    27    29   ar
    25    29    30   ar
    26    20    31    1
    27    31    32   ar
    28    32    33   ar
    29    33    34   ar
    30    34    35   ar
    31    35    36    1
    32    10    11   ar
    33    11    12   ar
    34    19    14   ar
    35    12     1   ar
    36    12     7   ar
    37    30    24   ar
    38    35    31   ar
    39    21    22    1
    40    21    23    1
