@<TRIPOS>MOLECULE
*****
 38 41 0 0 0
SMALL
GASTEIGER

@<TRIPOS>ATOM
      1 N          64.1159   86.3597   13.9052 N.am    1  UNL1       -0.2756
      2 C          63.7305   87.2676   15.0353 C.2     1  UNL1        0.2691
      3 O          63.0930   86.7005   16.2691 O.2     1  UNL1       -0.2681
      4 H          64.5342   86.7319   13.0955 H       1  UNL1        0.1553
      5 C          63.9823   88.7427   14.9316 C.ar    1  UNL1        0.1543
      6 N          64.5734   89.4554   13.7515 N.ar    1  UNL1       -0.2323
      7 C          64.6438   90.9172   14.0804 C.ar    1  UNL1        0.1164
      8 S          64.0962   91.1079   15.4638 S.2     1  UNL1       -0.0520
      9 C          63.6875   89.7640   15.9899 C.ar    1  UNL1        0.0957
     10 N          63.0889   89.4896   17.3377 N.pl3   1  UNL1       -0.3508
     11 H          62.9324   90.2304   17.9669 H       1  UNL1        0.1429
     12 H          62.8524   88.5686   17.5930 H       1  UNL1        0.1429
     13 C          65.1694   91.9984   13.1834 C.ar    1  UNL1        0.0787
     14 C          64.7901   92.0194   11.7323 C.ar    1  UNL1        0.1442
     15 F          63.8851   90.9591   11.1783 F       1  UNL1       -0.2040
     16 C          65.3157   93.1006   10.8352 C.ar    1  UNL1        0.0299
     17 C          66.2207   94.1608   11.3893 C.ar    1  UNL1        0.0046
     18 C          66.6001   94.1398   12.8403 C.ar    1  UNL1        0.0299
     19 C          66.0744   93.0586   13.7374 C.ar    1  UNL1        0.1442
     20 F          66.4538   93.0376   15.1885 F       1  UNL1       -0.2040
     21 C          62.7468   81.4026   12.7077 C.3     1  UNL1        0.1552
     22 N          63.2347   82.6061   13.4585 N.ar    1  UNL1       -0.2344
     23 N          63.7181   82.6234   14.8784 N.ar    1  UNL1       -0.1652
     24 C          64.1070   84.0316   15.2186 C.ar    1  UNL1        0.1376
     25 C          63.8640   84.8846   14.0089 C.ar    1  UNL1        0.1034
     26 C          63.3249   84.0036   12.9211 C.ar    1  UNL1        0.1439
     27 N          62.9431   84.4431   11.5387 N.pl3   1  UNL1       -0.2874
     28 C          63.6727   83.7667   10.4161 C.3     1  UNL1        0.0937
     29 C          63.5215   83.9810    8.9391 C.3     1  UNL1        0.0371
     30 C          62.6036   84.9245    8.2202 C.3     1  UNL1        0.0580
     31 N          62.6907   84.9029    6.7228 N.3     1  UNL1       -0.3220
     32 C          61.6100   85.8869    8.8004 C.3     1  UNL1        0.0839
     33 C          61.2890   86.1433   10.2430 C.3     1  UNL1        0.2831
     34 F          60.3710   87.0869    9.5240 F       1  UNL1       -0.2024
     35 F          60.5594   86.8197   11.3657 F       1  UNL1       -0.2024
     36 C          61.8823   85.5007   11.4617 C.3     1  UNL1        0.1591
     37 H          62.0304   85.5761    6.3341 H       1  UNL1        0.1188
     38 H          62.4637   83.9686    6.3825 H       1  UNL1        0.1188
@<TRIPOS>BOND
     1    21    22    1
     2    22    23   ar
     3    23    24   ar
     4    24    25   ar
     5    25     1    1
     6     1     2   am
     7     2     3    2
     8     2     5    1
     9     5     6   ar
    10     6     7   ar
    11     7    13    1
    12    13    14   ar
    13    14    15    1
    14    14    16   ar
    15    16    17   ar
    16    17    18   ar
    17    18    19   ar
    18    19    20    1
    19     7     8   ar
    20     8     9   ar
    21     9    10    1
    22    25    26   ar
    23    26    27    1
    24    27    28    1
    25    28    29    1
    26    29    30    1
    27    30    31    1
    28    30    32    1
    29    32    33    1
    30    33    34    1
    31    33    35    1
    32    33    36    1
    33    26    22   ar
    34    36    27    1
    35     9     5   ar
    36    19    13   ar
    37     1     4    1
    38    10    11    1
    39    10    12    1
    40    31    37    1
    41    31    38    1
@<TRIPOS>MOLECULE
*****
 38 41 0 0 0
SMALL
GASTEIGER

@<TRIPOS>ATOM
      1 N          64.0519   90.9963   12.3030 N.am    1  UNL1       -0.2756
      2 C          63.1944   89.7831   12.5100 C.2     1  UNL1        0.2691
      3 O          63.1631   89.1064   13.8484 O.2     1  UNL1       -0.2681
      4 H          64.0724   91.4404   11.4246 H       1  UNL1        0.1553
      5 C          62.3684   89.2464   11.3788 C.ar    1  UNL1        0.1543
      6 N          62.6441   87.9925   10.6032 N.ar    1  UNL1       -0.2323
      7 C          61.5677   87.8405    9.5697 C.ar    1  UNL1        0.1164
      8 S          60.6268   89.0006    9.7065 S.2     1  UNL1       -0.0520
      9 C          61.1216   89.8694   10.8245 C.ar    1  UNL1        0.0957
     10 N          60.4818   91.1387   11.3042 N.pl3   1  UNL1       -0.3508
     11 H          59.6601   91.4688   10.8741 H       1  UNL1        0.1429
     12 H          60.8837   91.6415   12.0491 H       1  UNL1        0.1429
     13 C          61.4526   86.7244    8.5741 C.ar    1  UNL1        0.0787
     14 C          62.6775   85.9719    8.1461 C.ar    1  UNL1        0.1442
     15 F          64.0176   86.3355    8.7137 F       1  UNL1       -0.2040
     16 C          62.5625   84.8558    7.1505 C.ar    1  UNL1        0.0299
     17 C          61.2224   84.4923    6.5830 C.ar    1  UNL1        0.0046
     18 C          59.9974   85.2448    7.0110 C.ar    1  UNL1        0.0299
     19 C          60.1126   86.3609    8.0066 C.ar    1  UNL1        0.1442
     20 F          58.8876   87.1134    8.4346 F       1  UNL1       -0.2040
     21 C          67.6739   93.6967   15.0359 C.3     1  UNL1        0.1552
     22 N          66.5428   92.7741   14.6904 N.ar    1  UNL1       -0.2344
     23 N          65.7552   91.9431   15.6596 N.ar    1  UNL1       -0.1652
     24 C          64.7263   91.1760   14.8832 C.ar    1  UNL1        0.1376
     25 C          64.8779   91.5329   13.4341 C.ar    1  UNL1        0.1034
     26 C          66.0005   92.5206   13.3150 C.ar    1  UNL1        0.1439
     27 N          66.4941   93.1450   12.0436 N.pl3   1  UNL1       -0.2874
     28 C          66.1713   94.5990   11.8646 C.3     1  UNL1        0.0937
     29 C          66.5199   95.5000   10.7171 C.3     1  UNL1        0.0371
     30 C          67.2773   95.1696    9.4654 C.3     1  UNL1        0.0580
     31 N          67.4635   96.3019    8.4994 N.3     1  UNL1       -0.3220
     32 C          67.8734   93.8567    9.0518 C.3     1  UNL1        0.0839
     33 C          67.8591   92.5498    9.7879 C.3     1  UNL1        0.2831
     34 F          68.6166   92.2195    8.5361 F       1  UNL1       -0.2024
     35 F          68.1819   91.0959    9.9670 F       1  UNL1       -0.2024
     36 C          67.2452   92.2332   11.1195 C.3     1  UNL1        0.1591
     37 H          67.9872   95.9739    7.6879 H       1  UNL1        0.1188
     38 H          67.9783   97.0558    8.9543 H       1  UNL1        0.1188
@<TRIPOS>BOND
     1    21    22    1
     2    22    23   ar
     3    23    24   ar
     4    24    25   ar
     5    25     1    1
     6     1     2   am
     7     2     3    2
     8     2     5    1
     9     5     6   ar
    10     6     7   ar
    11     7    13    1
    12    13    14   ar
    13    14    15    1
    14    14    16   ar
    15    16    17   ar
    16    17    18   ar
    17    18    19   ar
    18    19    20    1
    19     7     8   ar
    20     8     9   ar
    21     9    10    1
    22    25    26   ar
    23    26    27    1
    24    27    28    1
    25    28    29    1
    26    29    30    1
    27    30    31    1
    28    30    32    1
    29    32    33    1
    30    33    34    1
    31    33    35    1
    32    33    36    1
    33    26    22   ar
    34    36    27    1
    35     9     5   ar
    36    19    13   ar
    37     1     4    1
    38    10    11    1
    39    10    12    1
    40    31    37    1
    41    31    38    1
@<TRIPOS>MOLECULE
*****
 38 41 0 0 0
SMALL
GASTEIGER

@<TRIPOS>ATOM
      1 N          64.2213   90.6840   13.2844 N.am    1  UNL1       -0.2756
      2 C          64.0703   89.2098   13.5164 C.2     1  UNL1        0.2691
      3 O          64.7338   88.5646   14.6970 O.2     1  UNL1       -0.2681
      4 H          63.7859   91.1075   12.5096 H       1  UNL1        0.1553
      5 C          63.2561   88.3807   12.5680 C.ar    1  UNL1        0.1543
      6 N          62.4620   88.8964   11.4046 N.ar    1  UNL1       -0.2323
      7 C          61.8080   87.7248   10.7340 C.ar    1  UNL1        0.1164
      8 S          62.1979   86.4851   11.4829 S.2     1  UNL1       -0.0520
      9 C          63.0928   86.8904   12.6164 C.ar    1  UNL1        0.0957
     10 N          63.7153   85.9675   13.6218 N.pl3   1  UNL1       -0.3508
     11 H          63.5479   84.9987   13.5706 H       1  UNL1        0.1429
     12 H          64.2913   86.3306   14.3329 H       1  UNL1        0.1429
     13 C          60.9200   87.7829    9.5264 C.ar    1  UNL1        0.0787
     14 C          60.4155   89.1051    9.0294 C.ar    1  UNL1        0.1442
     15 F          60.7990   90.3694    9.7399 F       1  UNL1       -0.2040
     16 C          59.5275   89.1633    7.8218 C.ar    1  UNL1        0.0299
     17 C          59.1441   87.8990    7.1114 C.ar    1  UNL1        0.0046
     18 C          59.6486   86.5767    7.6084 C.ar    1  UNL1        0.0299
     19 C          60.5366   86.5187    8.8160 C.ar    1  UNL1        0.1442
     20 F          61.0411   85.1964    9.3130 F       1  UNL1       -0.2040
     21 C          67.7924   94.0673   15.2031 C.3     1  UNL1        0.1552
     22 N          66.6770   93.0682   15.1148 N.ar    1  UNL1       -0.2344
     23 N          65.9001   92.5096   16.2700 N.ar    1  UNL1       -0.1652
     24 C          64.8857   91.5485   15.7249 C.ar    1  UNL1        0.1376
     25 C          65.0356   91.5131   14.2328 C.ar    1  UNL1        0.1034
     26 C          66.1426   92.4523   13.8558 C.ar    1  UNL1        0.1439
     27 N          66.6298   92.7273   12.4640 N.pl3   1  UNL1       -0.2874
     28 C          67.5902   91.7223   11.9002 C.3     1  UNL1        0.0937
     29 C          68.2501   91.7128   10.5532 C.3     1  UNL1        0.0371
     30 C          68.1127   92.7057    9.4374 C.3     1  UNL1        0.0580
     31 N          68.9123   92.4120    8.2027 N.3     1  UNL1       -0.3220
     32 C          67.2814   93.9535    9.3929 C.3     1  UNL1        0.0839
     33 C          66.3822   94.5165   10.4533 C.3     1  UNL1        0.2831
     34 F          66.2448   95.5095    9.3374 F       1  UNL1       -0.2024
     35 F          65.4218   95.5214   11.0171 F       1  UNL1       -0.2024
     36 C          66.0923   93.9707   11.8200 C.3     1  UNL1        0.1591
     37 H          68.7489   93.1427    7.5100 H       1  UNL1        0.1188
     38 H          68.6276   91.5105    7.8197 H       1  UNL1        0.1188
@<TRIPOS>BOND
     1    21    22    1
     2    22    23   ar
     3    23    24   ar
     4    24    25   ar
     5    25     1    1
     6     1     2   am
     7     2     3    2
     8     2     5    1
     9     5     6   ar
    10     6     7   ar
    11     7    13    1
    12    13    14   ar
    13    14    15    1
    14    14    16   ar
    15    16    17   ar
    16    17    18   ar
    17    18    19   ar
    18    19    20    1
    19     7     8   ar
    20     8     9   ar
    21     9    10    1
    22    25    26   ar
    23    26    27    1
    24    27    28    1
    25    28    29    1
    26    29    30    1
    27    30    31    1
    28    30    32    1
    29    32    33    1
    30    33    34    1
    31    33    35    1
    32    33    36    1
    33    26    22   ar
    34    36    27    1
    35     9     5   ar
    36    19    13   ar
    37     1     4    1
    38    10    11    1
    39    10    12    1
    40    31    37    1
    41    31    38    1
@<TRIPOS>MOLECULE
*****
 38 41 0 0 0
SMALL
GASTEIGER

@<TRIPOS>ATOM
      1 N          64.3652   90.7195   13.1508 N.am    1  UNL1       -0.2756
      2 C          64.0705   89.2864   13.4812 C.2     1  UNL1        0.2691
      3 O          64.5896   88.6885   14.7553 O.2     1  UNL1       -0.2681
      4 H          64.0245   91.1120   12.3146 H       1  UNL1        0.1553
      5 C          63.2567   88.4511   12.5378 C.ar    1  UNL1        0.1543
      6 N          62.4548   88.9603   11.3769 N.ar    1  UNL1       -0.2323
      7 C          61.8045   87.7840   10.7112 C.ar    1  UNL1        0.1164
      8 S          62.2045   86.5477   11.4607 S.2     1  UNL1       -0.0520
      9 C          63.1020   86.9601   12.5895 C.ar    1  UNL1        0.0957
     10 N          63.7339   86.0424   13.5938 N.pl3   1  UNL1       -0.3508
     11 H          63.5717   85.0725   13.5450 H       1  UNL1        0.1429
     12 H          64.3110   86.4099   14.3018 H       1  UNL1        0.1429
     13 C          60.9109   87.8349    9.5074 C.ar    1  UNL1        0.0787
     14 C          60.4043   89.1543    9.0049 C.ar    1  UNL1        0.1442
     15 F          60.7911   90.4227    9.7061 F       1  UNL1       -0.2040
     16 C          59.5108   89.2053    7.8011 C.ar    1  UNL1        0.0299
     17 C          59.1240   87.9369    7.0999 C.ar    1  UNL1        0.0046
     18 C          59.6307   86.6176    7.6024 C.ar    1  UNL1        0.0299
     19 C          60.5242   86.5666    8.8062 C.ar    1  UNL1        0.1442
     20 F          61.0309   85.2473    9.3088 F       1  UNL1       -0.2040
     21 C          67.7739   94.2815   15.0414 C.3     1  UNL1        0.1552
     22 N          66.7457   93.1920   14.9633 N.ar    1  UNL1       -0.2344
     23 N          66.1166   92.4881   16.1290 N.ar    1  UNL1       -0.1652
     24 C          65.1483   91.4763   15.5919 C.ar    1  UNL1        0.1376
     25 C          65.1790   91.5548   14.0942 C.ar    1  UNL1        0.1034
     26 C          66.1662   92.6151   13.7058 C.ar    1  UNL1        0.1439
     27 N          66.5130   93.0264   12.3055 N.pl3   1  UNL1       -0.2874
     28 C          65.8216   94.2574   11.7987 C.3     1  UNL1        0.0937
     29 C          65.9518   94.9183   10.4584 C.3     1  UNL1        0.0371
     30 C          66.8054   94.5115    9.2941 C.3     1  UNL1        0.0580
     31 N          66.7124   95.3889    8.0810 N.3     1  UNL1       -0.3220
     32 C          67.7397   93.3434    9.1823 C.3     1  UNL1        0.0839
     33 C          68.0512   92.2935   10.2073 C.3     1  UNL1        0.2831
     34 F          68.9048   91.8867    9.0429 F       1  UNL1       -0.2024
     35 F          68.7425   91.0625   10.7142 F       1  UNL1       -0.2024
     36 C          67.5052   92.1525   11.5973 C.3     1  UNL1        0.1591
     37 H          67.3275   95.0275    7.3520 H       1  UNL1        0.1188
     38 H          66.9957   96.3379    8.3253 H       1  UNL1        0.1188
@<TRIPOS>BOND
     1    21    22    1
     2    22    23   ar
     3    23    24   ar
     4    24    25   ar
     5    25     1    1
     6     1     2   am
     7     2     3    2
     8     2     5    1
     9     5     6   ar
    10     6     7   ar
    11     7    13    1
    12    13    14   ar
    13    14    15    1
    14    14    16   ar
    15    16    17   ar
    16    17    18   ar
    17    18    19   ar
    18    19    20    1
    19     7     8   ar
    20     8     9   ar
    21     9    10    1
    22    25    26   ar
    23    26    27    1
    24    27    28    1
    25    28    29    1
    26    29    30    1
    27    30    31    1
    28    30    32    1
    29    32    33    1
    30    33    34    1
    31    33    35    1
    32    33    36    1
    33    26    22   ar
    34    36    27    1
    35     9     5   ar
    36    19    13   ar
    37     1     4    1
    38    10    11    1
    39    10    12    1
    40    31    37    1
    41    31    38    1
@<TRIPOS>MOLECULE
*****
 38 41 0 0 0
SMALL
GASTEIGER

@<TRIPOS>ATOM
      1 N          63.7135   91.0170   12.5533 N.am    1  UNL1       -0.2756
      2 C          63.1706   89.6207   12.6291 C.2     1  UNL1        0.2691
      3 O          63.4745   88.7616   13.8206 O.2     1  UNL1       -0.2681
      4 H          63.5140   91.5809   11.7714 H       1  UNL1        0.1553
      5 C          62.3238   89.0836   11.5136 C.ar    1  UNL1        0.1543
      6 N          62.6396   87.8885   10.6638 N.ar    1  UNL1       -0.2323
      7 C          61.5236   87.7135    9.6770 C.ar    1  UNL1        0.1164
      8 S          60.5181   88.8004    9.9169 S.2     1  UNL1       -0.0520
      9 C          61.0126   89.6471   11.0519 C.ar    1  UNL1        0.0957
     10 N          60.3179   90.8468   11.6248 N.pl3   1  UNL1       -0.3508
     11 H          59.4556   91.1410   11.2519 H       1  UNL1        0.1429
     12 H          60.7243   91.3400   12.3737 H       1  UNL1        0.1429
     13 C          61.4297   86.6400    8.6335 C.ar    1  UNL1        0.0787
     14 C          62.6578   85.8819    8.2248 C.ar    1  UNL1        0.1442
     15 F          63.9798   86.1972    8.8596 F       1  UNL1       -0.2040
     16 C          62.5640   84.8084    7.1813 C.ar    1  UNL1        0.0299
     17 C          61.2419   84.4931    6.5465 C.ar    1  UNL1        0.0046
     18 C          60.0138   85.2512    6.9552 C.ar    1  UNL1        0.0299
     19 C          60.1078   86.3247    7.9987 C.ar    1  UNL1        0.1442
     20 F          58.8797   87.0828    8.4074 F       1  UNL1       -0.2040
     21 C          67.4956   93.5792   15.2012 C.3     1  UNL1        0.1552
     22 N          66.2986   92.7318   14.8860 N.ar    1  UNL1       -0.2344
     23 N          65.4277   92.0295   15.8852 N.ar    1  UNL1       -0.1652
     24 C          64.3533   91.3017   15.1330 C.ar    1  UNL1        0.1376
     25 C          64.5602   91.5541   13.6688 C.ar    1  UNL1        0.1034
     26 C          65.7625   92.4380   13.5163 C.ar    1  UNL1        0.1439
     27 N          66.3290   92.9399   12.2213 N.pl3   1  UNL1       -0.2874
     28 C          67.0601   91.9244   11.3938 C.3     1  UNL1        0.0937
     29 C          67.7323   92.1092   10.0656 C.3     1  UNL1        0.0371
     30 C          67.8395   93.3547    9.2369 C.3     1  UNL1        0.0580
     31 N          68.5837   93.2131    7.9423 N.3     1  UNL1       -0.3220
     32 C          67.3010   94.7234    9.5316 C.3     1  UNL1        0.0839
     33 C          66.5223   95.1844   10.7279 C.3     1  UNL1        0.2831
     34 F          66.6295   96.4301    9.8991 F       1  UNL1       -0.2024
     35 F          65.7912   96.1998   11.5553 F       1  UNL1       -0.2024
     36 C          66.0897   94.3906   11.9248 C.3     1  UNL1        0.1591
     37 H          68.5989   94.1111    7.4588 H       1  UNL1        0.1188
     38 H          68.1183   92.5195    7.3567 H       1  UNL1        0.1188
@<TRIPOS>BOND
     1    21    22    1
     2    22    23   ar
     3    23    24   ar
     4    24    25   ar
     5    25     1    1
     6     1     2   am
     7     2     3    2
     8     2     5    1
     9     5     6   ar
    10     6     7   ar
    11     7    13    1
    12    13    14   ar
    13    14    15    1
    14    14    16   ar
    15    16    17   ar
    16    17    18   ar
    17    18    19   ar
    18    19    20    1
    19     7     8   ar
    20     8     9   ar
    21     9    10    1
    22    25    26   ar
    23    26    27    1
    24    27    28    1
    25    28    29    1
    26    29    30    1
    27    30    31    1
    28    30    32    1
    29    32    33    1
    30    33    34    1
    31    33    35    1
    32    33    36    1
    33    26    22   ar
    34    36    27    1
    35     9     5   ar
    36    19    13   ar
    37     1     4    1
    38    10    11    1
    39    10    12    1
    40    31    37    1
    41    31    38    1
@<TRIPOS>MOLECULE
*****
 38 41 0 0 0
SMALL
GASTEIGER

@<TRIPOS>ATOM
      1 N          64.7008   90.1759   13.2362 N.am    1  UNL1       -0.2756
      2 C          63.9524   89.0297   13.8496 C.2     1  UNL1        0.2691
      3 O          63.7185   88.9937   15.3309 O.2     1  UNL1       -0.2681
      4 H          64.8543   90.1995   12.2641 H       1  UNL1        0.1553
      5 C          63.4381   87.9196   12.9819 C.ar    1  UNL1        0.1543
      6 N          63.6739   86.4534   13.1938 N.ar    1  UNL1       -0.2323
      7 C          62.9792   85.7083   12.0928 C.ar    1  UNL1        0.1164
      8 S          62.3141   86.7139   11.2005 S.2     1  UNL1       -0.0520
      9 C          62.5977   88.0805   11.7499 C.ar    1  UNL1        0.0957
     10 N          62.1240   89.3800   11.1693 N.pl3   1  UNL1       -0.3508
     11 H          61.5737   89.3829   10.3530 H       1  UNL1        0.1429
     12 H          62.3635   90.2300   11.6046 H       1  UNL1        0.1429
     13 C          62.9541   84.2190   11.9154 C.ar    1  UNL1        0.0787
     14 C          63.3941   83.6110   10.6168 C.ar    1  UNL1        0.1442
     15 F          63.8594   84.4922    9.4955 F       1  UNL1       -0.2040
     16 C          63.3690   82.1217   10.4393 C.ar    1  UNL1        0.0299
     17 C          62.9038   81.2406   11.5606 C.ar    1  UNL1        0.0046
     18 C          62.4637   81.8486   12.8592 C.ar    1  UNL1        0.0299
     19 C          62.4889   83.3379   13.0366 C.ar    1  UNL1        0.1442
     20 F          62.0488   83.9460   14.3353 F       1  UNL1       -0.2040
     21 C          67.2077   94.5298   14.8607 C.3     1  UNL1        0.1552
     22 N          66.3674   93.2873   14.8507 N.ar    1  UNL1       -0.2344
     23 N          65.6457   92.7014   16.0280 N.ar    1  UNL1       -0.1652
     24 C          64.9336   91.4646   15.5665 C.ar    1  UNL1        0.1376
     25 C          65.2151   91.2860   14.1039 C.ar    1  UNL1        0.1034
     26 C          66.1012   92.4126   13.6616 C.ar    1  UNL1        0.1439
     27 N          66.6286   92.6266   12.2738 N.pl3   1  UNL1       -0.2874
     28 C          67.6995   91.6744   11.8305 C.3     1  UNL1        0.0937
     29 C          68.4217   91.6249   10.5167 C.3     1  UNL1        0.0371
     30 C          68.2513   92.5154    9.3218 C.3     1  UNL1        0.0580
     31 N          69.1320   92.2050    8.1479 N.3     1  UNL1       -0.3220
     32 C          67.3168   93.6754    9.1455 C.3     1  UNL1        0.0839
     33 C          66.3217   94.2313   10.1206 C.3     1  UNL1        0.2831
     34 F          66.1514   95.1218    8.9256 F       1  UNL1       -0.2024
     35 F          65.2508   95.1835   10.5639 F       1  UNL1       -0.2024
     36 C          66.0155   93.7645   11.5128 C.3     1  UNL1        0.1591
     37 H          68.9385   92.8642    7.3940 H       1  UNL1        0.1188
     38 H          68.9463   91.2553    7.8253 H       1  UNL1        0.1188
@<TRIPOS>BOND
     1    21    22    1
     2    22    23   ar
     3    23    24   ar
     4    24    25   ar
     5    25     1    1
     6     1     2   am
     7     2     3    2
     8     2     5    1
     9     5     6   ar
    10     6     7   ar
    11     7    13    1
    12    13    14   ar
    13    14    15    1
    14    14    16   ar
    15    16    17   ar
    16    17    18   ar
    17    18    19   ar
    18    19    20    1
    19     7     8   ar
    20     8     9   ar
    21     9    10    1
    22    25    26   ar
    23    26    27    1
    24    27    28    1
    25    28    29    1
    26    29    30    1
    27    30    31    1
    28    30    32    1
    29    32    33    1
    30    33    34    1
    31    33    35    1
    32    33    36    1
    33    26    22   ar
    34    36    27    1
    35     9     5   ar
    36    19    13   ar
    37     1     4    1
    38    10    11    1
    39    10    12    1
    40    31    37    1
    41    31    38    1
@<TRIPOS>MOLECULE
*****
 38 41 0 0 0
SMALL
GASTEIGER

@<TRIPOS>ATOM
      1 N          63.1190   88.8153   14.0112 N.am    1  UNL1       -0.2756
      2 C          63.7032   87.4349   13.9554 C.2     1  UNL1        0.2691
      3 O          64.7043   87.0020   14.9852 O.2     1  UNL1       -0.2681
      4 H          62.4620   89.0994   13.3353 H       1  UNL1        0.1553
      5 C          63.2865   86.4874   12.8698 C.ar    1  UNL1        0.1543
      6 N          62.7585   86.8711   11.5192 N.ar    1  UNL1       -0.2323
      7 C          62.4703   85.6107   10.7589 C.ar    1  UNL1        0.1164
      8 S          62.8203   84.4479   11.6395 S.2     1  UNL1       -0.0520
      9 C          63.3247   84.9897   12.9440 C.ar    1  UNL1        0.0957
     10 N          63.7862   84.1766   14.1170 N.pl3   1  UNL1       -0.3508
     11 H          63.7739   83.1933   14.0698 H       1  UNL1        0.1429
     12 H          64.1015   84.6262   14.9342 H       1  UNL1        0.1429
     13 C          61.9275   85.5277    9.3629 C.ar    1  UNL1        0.0787
     14 C          62.6812   84.7721    8.3090 C.ar    1  UNL1        0.1442
     15 F          63.9777   84.0995    8.6508 F       1  UNL1       -0.2040
     16 C          62.1385   84.6890    6.9130 C.ar    1  UNL1        0.0299
     17 C          60.8420   85.3616    6.5713 C.ar    1  UNL1        0.0046
     18 C          60.0883   86.1172    7.6252 C.ar    1  UNL1        0.0299
     19 C          60.6311   86.2002    9.0212 C.ar    1  UNL1        0.1442
     20 F          59.8774   86.9558   10.0752 F       1  UNL1       -0.2040
     21 C          65.3454   92.8714   16.5550 C.3     1  UNL1        0.1552
     22 N          64.5590   91.6272   16.2661 N.ar    1  UNL1       -0.2344
     23 N          63.7946   90.8145   17.2687 N.ar    1  UNL1       -0.1652
     24 C          63.1621   89.6622   16.5461 C.ar    1  UNL1        0.1376
     25 C          63.5357   89.7628   15.0968 C.ar    1  UNL1        0.1034
     26 C          64.3989   90.9772   14.9238 C.ar    1  UNL1        0.1439
     27 N          64.9971   91.4572   13.6347 N.pl3   1  UNL1       -0.2874
     28 C          66.4398   91.8631   13.6981 C.3     1  UNL1        0.0937
     29 C          67.3153   92.3799   12.5950 C.3     1  UNL1        0.0371
     30 C          66.9642   92.6185   11.1564 C.3     1  UNL1        0.0580
     31 N          68.0730   93.1461   10.2949 N.3     1  UNL1       -0.3220
     32 C          65.6511   92.3992   10.4653 C.3     1  UNL1        0.0839
     33 C          64.3646   91.8872   11.0423 C.3     1  UNL1        0.2831
     34 F          64.0136   92.1258    9.6036 F       1  UNL1       -0.2024
     35 F          62.9219   91.4814   10.9790 F       1  UNL1       -0.2024
     36 C          64.0737   91.4680   12.4528 C.3     1  UNL1        0.1591
     37 H          67.7322   93.2726    9.3418 H       1  UNL1        0.1188
     38 H          68.8478   92.4827   10.2937 H       1  UNL1        0.1188
@<TRIPOS>BOND
     1    21    22    1
     2    22    23   ar
     3    23    24   ar
     4    24    25   ar
     5    25     1    1
     6     1     2   am
     7     2     3    2
     8     2     5    1
     9     5     6   ar
    10     6     7   ar
    11     7    13    1
    12    13    14   ar
    13    14    15    1
    14    14    16   ar
    15    16    17   ar
    16    17    18   ar
    17    18    19   ar
    18    19    20    1
    19     7     8   ar
    20     8     9   ar
    21     9    10    1
    22    25    26   ar
    23    26    27    1
    24    27    28    1
    25    28    29    1
    26    29    30    1
    27    30    31    1
    28    30    32    1
    29    32    33    1
    30    33    34    1
    31    33    35    1
    32    33    36    1
    33    26    22   ar
    34    36    27    1
    35     9     5   ar
    36    19    13   ar
    37     1     4    1
    38    10    11    1
    39    10    12    1
    40    31    37    1
    41    31    38    1
@<TRIPOS>MOLECULE
*****
 38 41 0 0 0
SMALL
GASTEIGER

@<TRIPOS>ATOM
      1 N          63.6583   89.7638   11.8357 N.am    1  UNL1       -0.2756
      2 C          62.2025   89.4462   12.0081 C.2     1  UNL1        0.2691
      3 O          61.4123   90.1157   13.0933 O.2     1  UNL1       -0.2681
      4 H          64.1770   89.3245   11.1236 H       1  UNL1        0.1553
      5 C          61.5369   88.4593   11.0955 C.ar    1  UNL1        0.1543
      6 N          62.1897   87.7303    9.9587 N.ar    1  UNL1       -0.2323
      7 C          61.1579   86.8486    9.3201 C.ar    1  UNL1        0.1164
      8 S          59.8674   87.0327   10.0621 S.2     1  UNL1       -0.0520
      9 C          60.1016   88.0282   11.1594 C.ar    1  UNL1        0.0957
     10 N          59.0799   88.5083   12.1472 N.pl3   1  UNL1       -0.3508
     11 H          58.1582   88.1646   12.1084 H       1  UNL1        0.1429
     12 H          59.3311   89.1670   12.8344 H       1  UNL1        0.1429
     13 C          61.3780   85.9419    8.1455 C.ar    1  UNL1        0.0787
     14 C          60.2651   85.6934    7.1710 C.ar    1  UNL1        0.1442
     15 F          58.9321   86.3516    7.3710 F       1  UNL1       -0.2040
     16 C          60.4851   84.7867    5.9964 C.ar    1  UNL1        0.0299
     17 C          61.8181   84.1286    5.7965 C.ar    1  UNL1        0.0046
     18 C          62.9310   84.3771    6.7709 C.ar    1  UNL1        0.0299
     19 C          62.7109   85.2838    7.9455 C.ar    1  UNL1        0.1442
     20 F          63.8238   85.5322    8.9200 F       1  UNL1       -0.2040
     21 C          65.6602   92.0560   16.1507 C.3     1  UNL1        0.1552
     22 N          65.2441   91.8044   14.7317 N.ar    1  UNL1       -0.2344
     23 N          65.4524   92.7347   13.5736 N.ar    1  UNL1       -0.1652
     24 C          64.8837   92.0836   12.3478 C.ar    1  UNL1        0.1376
     25 C          64.3239   90.7507   12.7483 C.ar    1  UNL1        0.1034
     26 C          64.5467   90.5783   14.2216 C.ar    1  UNL1        0.1439
     27 N          64.1428   89.3885   15.0409 N.pl3   1  UNL1       -0.2874
     28 C          63.4137   89.6935   16.3159 C.3     1  UNL1        0.0937
     29 C          62.8832   88.7363   17.3419 C.3     1  UNL1        0.0371
     30 C          62.9507   87.2380   17.3462 C.3     1  UNL1        0.0580
     31 N          62.3201   86.5615   18.5272 N.3     1  UNL1       -0.3220
     32 C          63.5654   86.3264   16.3257 C.3     1  UNL1        0.0839
     33 C          64.2644   86.6883   15.0488 C.3     1  UNL1        0.2831
     34 F          64.3319   85.1899   15.0532 F       1  UNL1       -0.2024
     35 F          64.9935   86.3834   13.7739 F       1  UNL1       -0.2024
     36 C          64.5214   88.0511   14.4771 C.3     1  UNL1        0.1591
     37 H          62.4199   85.5507   18.4333 H       1  UNL1        0.1188
     38 H          61.3300   86.8030   18.5687 H       1  UNL1        0.1188
@<TRIPOS>BOND
     1    21    22    1
     2    22    23   ar
     3    23    24   ar
     4    24    25   ar
     5    25     1    1
     6     1     2   am
     7     2     3    2
     8     2     5    1
     9     5     6   ar
    10     6     7   ar
    11     7    13    1
    12    13    14   ar
    13    14    15    1
    14    14    16   ar
    15    16    17   ar
    16    17    18   ar
    17    18    19   ar
    18    19    20    1
    19     7     8   ar
    20     8     9   ar
    21     9    10    1
    22    25    26   ar
    23    26    27    1
    24    27    28    1
    25    28    29    1
    26    29    30    1
    27    30    31    1
    28    30    32    1
    29    32    33    1
    30    33    34    1
    31    33    35    1
    32    33    36    1
    33    26    22   ar
    34    36    27    1
    35     9     5   ar
    36    19    13   ar
    37     1     4    1
    38    10    11    1
    39    10    12    1
    40    31    37    1
    41    31    38    1
@<TRIPOS>MOLECULE
*****
 38 41 0 0 0
SMALL
GASTEIGER

@<TRIPOS>ATOM
      1 N          63.3759   88.8662   13.8947 N.am    1  UNL1       -0.2756
      2 C          63.4799   87.3855   14.1108 C.2     1  UNL1        0.2691
      3 O          63.8327   86.8484   15.4662 O.2     1  UNL1       -0.2681
      4 H          63.1443   89.2188   13.0051 H       1  UNL1        0.1553
      5 C          63.2310   86.4420   12.9716 C.ar    1  UNL1        0.1543
      6 N          62.6690   86.8083   11.6300 N.ar    1  UNL1       -0.2323
      7 C          62.5911   85.5592   10.8033 C.ar    1  UNL1        0.1164
      8 S          63.1048   84.4208   11.6340 S.2     1  UNL1       -0.0520
      9 C          63.5003   84.9664   12.9740 C.ar    1  UNL1        0.0957
     10 N          64.0658   84.1752   14.1161 N.pl3   1  UNL1       -0.3508
     11 H          64.2071   83.2055   14.0210 H       1  UNL1        0.1429
     12 H          64.2957   84.6256   14.9608 H       1  UNL1        0.1429
     13 C          62.0877   85.4650    9.3933 C.ar    1  UNL1        0.0787
     14 C          60.8056   86.1414    9.0081 C.ar    1  UNL1        0.1442
     15 F          60.0267   86.9120   10.0326 F       1  UNL1       -0.2040
     16 C          60.3021   86.0473    7.5982 C.ar    1  UNL1        0.0299
     17 C          61.0810   85.2768    6.5736 C.ar    1  UNL1        0.0046
     18 C          62.3632   84.6004    6.9589 C.ar    1  UNL1        0.0299
     19 C          62.8665   84.6945    8.3689 C.ar    1  UNL1        0.1442
     20 F          64.1487   84.0181    8.7541 F       1  UNL1       -0.2040
     21 C          65.2691   92.8568   16.7881 C.3     1  UNL1        0.1552
     22 N          64.4950   91.6440   16.3639 N.ar    1  UNL1       -0.2344
     23 N          63.5205   90.8795   17.2099 N.ar    1  UNL1       -0.1652
     24 C          62.9827   89.7459   16.3880 C.ar    1  UNL1        0.1376
     25 C          63.6248   89.8098   15.0338 C.ar    1  UNL1        0.1034
     26 C          64.5594   90.9829   15.0190 C.ar    1  UNL1        0.1439
     27 N          65.4093   91.4183   13.8622 N.pl3   1  UNL1       -0.2874
     28 C          64.6648   91.8382   12.6295 C.3     1  UNL1        0.0937
     29 C          65.2185   92.3198   11.3211 C.3     1  UNL1        0.0371
     30 C          66.6531   92.5005   10.9225 C.3     1  UNL1        0.0580
     31 N          66.8827   93.0040    9.5283 N.3     1  UNL1       -0.3220
     32 C          67.8886   92.2441   11.7336 C.3     1  UNL1        0.0839
     33 C          67.9945   91.7439   13.1437 C.3     1  UNL1        0.2831
     34 F          69.4293   91.9245   12.7450 F       1  UNL1       -0.2024
     35 F          68.7389   91.3239   14.3765 F       1  UNL1       -0.2024
     36 C          66.8911   91.3764   14.0910 C.3     1  UNL1        0.1591
     37 H          67.8848   93.0912    9.3591 H       1  UNL1        0.1188
     38 H          66.4388   93.9158    9.4187 H       1  UNL1        0.1188
@<TRIPOS>BOND
     1    21    22    1
     2    22    23   ar
     3    23    24   ar
     4    24    25   ar
     5    25     1    1
     6     1     2   am
     7     2     3    2
     8     2     5    1
     9     5     6   ar
    10     6     7   ar
    11     7    13    1
    12    13    14   ar
    13    14    15    1
    14    14    16   ar
    15    16    17   ar
    16    17    18   ar
    17    18    19   ar
    18    19    20    1
    19     7     8   ar
    20     8     9   ar
    21     9    10    1
    22    25    26   ar
    23    26    27    1
    24    27    28    1
    25    28    29    1
    26    29    30    1
    27    30    31    1
    28    30    32    1
    29    32    33    1
    30    33    34    1
    31    33    35    1
    32    33    36    1
    33    26    22   ar
    34    36    27    1
    35     9     5   ar
    36    19    13   ar
    37     1     4    1
    38    10    11    1
    39    10    12    1
    40    31    37    1
    41    31    38    1
