@<TRIPOS>MOLECULE
*****
 26 29 0 0 0
SMALL
GASTEIGER

@<TRIPOS>ATOM
      1 C          64.5313   90.2432   13.9410 C.2     1  UNL1        0.0162
      2 C          65.6901   91.1767   14.1294 C.2     1  UNL1        0.0981
      3 N          65.7880   92.0458   12.9107 N.2     1  UNL1       -0.2478
      4 C          64.6896   91.6494   11.9692 C.2     1  UNL1        0.0636
      5 C          64.2963   92.1590   10.6144 C.3     1  UNL1        0.0753
      6 C          63.1264   91.5544    9.8963 C.2     1  UNL1        0.0203
      7 C          62.3497   90.4403   10.5331 C.2     1  UNL1        0.1318
      8 C          62.7429   89.9308   11.8879 C.2     1  UNL1        0.0410
      9 C          63.9129   90.5353   12.6060 C.2     1  UNL1        0.0184
     10 C          62.6920   86.0725   17.8427 C.3     1  UNL1        0.0899
     11 N          63.1519   87.1152   16.8673 N.3     1  UNL1       -0.2674
     12 C          62.8723   88.5649   17.1318 C.3     1  UNL1        0.0986
     13 C          63.3321   89.6076   16.1564 C.2     1  UNL1       -0.0130
     14 C          64.0714   89.2005   14.9164 C.2     1  UNL1       -0.0222
     15 C          64.3510   87.7507   14.6519 C.3     1  UNL1        0.0434
     16 C          63.8912   86.7080   15.6273 C.3     1  UNL1        0.0771
     17 N          61.1796   89.8358    9.8149 N.pl3   1  UNL1       -0.1970
     18 H          60.6980   90.3570    9.1326 H       1  UNL1        0.2986
     19 C          60.7434   88.4371   10.1364 C.2     1  UNL1        0.3515
     20 N          59.8900   88.1760   11.3420 N.2     1  UNL1       -0.0963
     21 H          59.6162   88.9227   11.9223 H       1  UNL1        0.3634
     22 C          61.1607   87.2994    9.2523 C.ar    1  UNL1        0.2267
     23 C          62.4626   86.5579    9.3251 C.ar    1  UNL1        0.0484
     24 C          62.4558   85.5037    8.2580 C.ar    1  UNL1        0.0441
     25 C          61.1498   85.5938    7.5257 C.ar    1  UNL1        0.1800
     26 O          60.3494   86.7036    8.1403 O.2     1  UNL1       -0.4429
@<TRIPOS>BOND
     1    10    11    1
     2    11    12    1
     3    12    13    1
     4    13    14    2
     5    14     1    1
     6     1     2    2
     7     2     3    1
     8     3     4    2
     9     4     5    1
    10     5     6    1
    11     6     7    2
    12     7    17    1
    13    17    19    1
    14    19    20    2
    15    19    22    1
    16    22    23   ar
    17    23    24   ar
    18    24    25   ar
    19    25    26   ar
    20     7     8    1
    21     8     9    2
    22    14    15    1
    23    15    16    1
    24    16    11    1
    25     9     1    1
    26     9     4    1
    27    26    22   ar
    28    17    18    1
    29    20    21    1
@<TRIPOS>MOLECULE
*****
 26 29 0 0 0
SMALL
GASTEIGER

@<TRIPOS>ATOM
      1 C          66.4298   92.6611   12.5737 C.2     1  UNL1        0.0162
      2 C          67.3691   92.3752   13.7077 C.2     1  UNL1        0.0981
      3 N          66.7416   91.3252   14.5758 N.2     1  UNL1       -0.2478
      4 C          65.4144   90.9622   13.9784 C.2     1  UNL1        0.0636
      5 C          64.3565   89.9865   14.4013 C.3     1  UNL1        0.0753
      6 C          63.1059   89.8365   13.5868 C.2     1  UNL1        0.0203
      7 C          62.9132   90.6622   12.3494 C.2     1  UNL1        0.1318
      8 C          63.9711   91.6378   11.9265 C.2     1  UNL1        0.0410
      9 C          65.2217   91.7878   12.7410 C.2     1  UNL1        0.0184
     10 C          67.3442   96.6053    8.1457 C.3     1  UNL1        0.0899
     11 N          67.1156   95.6192    9.2527 N.3     1  UNL1       -0.2674
     12 C          66.4983   96.0702   10.5432 C.3     1  UNL1        0.0986
     13 C          66.2697   95.0842   11.6502 C.2     1  UNL1       -0.0130
     14 C          66.6584   93.6472   11.4667 C.2     1  UNL1       -0.0222
     15 C          67.2757   93.1961   10.1761 C.3     1  UNL1        0.0434
     16 C          67.5043   94.1822    9.0691 C.3     1  UNL1        0.0771
     17 N          61.6625   90.5121   11.5349 N.pl3   1  UNL1       -0.1970
     18 H          61.3899   91.2270   10.9153 H       1  UNL1        0.2986
     19 C          60.8274   89.2729   11.6643 C.2     1  UNL1        0.3515
     20 N          59.5562   89.3049   12.4600 N.2     1  UNL1       -0.0963
     21 H          59.2701   90.1392   12.8973 H       1  UNL1        0.3634
     22 C          61.2634   88.0016   10.9980 C.ar    1  UNL1        0.2267
     23 C          61.9610   87.8943    9.6745 C.ar    1  UNL1        0.0484
     24 C          62.2071   86.4409    9.3967 C.ar    1  UNL1        0.0441
     25 C          61.6614   85.6500   10.5487 C.ar    1  UNL1        0.1800
     26 O          61.0782   86.6146   11.5383 O.2     1  UNL1       -0.4429
@<TRIPOS>BOND
     1    10    11    1
     2    11    12    1
     3    12    13    1
     4    13    14    2
     5    14     1    1
     6     1     2    2
     7     2     3    1
     8     3     4    2
     9     4     5    1
    10     5     6    1
    11     6     7    2
    12     7    17    1
    13    17    19    1
    14    19    20    2
    15    19    22    1
    16    22    23   ar
    17    23    24   ar
    18    24    25   ar
    19    25    26   ar
    20     7     8    1
    21     8     9    2
    22    14    15    1
    23    15    16    1
    24    16    11    1
    25     9     1    1
    26     9     4    1
    27    26    22   ar
    28    17    18    1
    29    20    21    1
@<TRIPOS>MOLECULE
*****
 26 29 0 0 0
SMALL
GASTEIGER

@<TRIPOS>ATOM
      1 C          66.4246   92.6465   12.5778 C.2     1  UNL1        0.0162
      2 C          67.3630   92.3598   13.7123 C.2     1  UNL1        0.0981
      3 N          66.7368   91.3060   14.5768 N.2     1  UNL1       -0.2478
      4 C          65.4113   90.9414   13.9766 C.2     1  UNL1        0.0636
      5 C          64.3552   89.9620   14.3954 C.3     1  UNL1        0.0753
      6 C          63.1061   89.8112   13.5787 C.2     1  UNL1        0.0203
      7 C          62.9132   90.6396   12.3432 C.2     1  UNL1        0.1318
      8 C          63.9693   91.6190   11.9244 C.2     1  UNL1        0.0410
      9 C          65.2184   91.7698   12.7411 C.2     1  UNL1        0.0184
     10 C          67.3356   96.6049    8.1617 C.3     1  UNL1        0.0899
     11 N          67.1078   95.6153    9.2658 N.3     1  UNL1       -0.2674
     12 C          67.4996   94.1795    9.0786 C.3     1  UNL1        0.0986
     13 C          67.2718   93.1899   10.1827 C.2     1  UNL1       -0.0130
     14 C          66.6523   93.6360   11.4738 C.2     1  UNL1       -0.0222
     15 C          66.2605   95.0719   11.6609 C.3     1  UNL1        0.0434
     16 C          66.4883   96.0615   10.5569 C.3     1  UNL1        0.0771
     17 N          61.6640   90.4887   11.5265 N.pl3   1  UNL1       -0.1970
     18 H          61.3932   91.2024   10.9048 H       1  UNL1        0.2986
     19 C          60.8276   89.2505   11.6571 C.2     1  UNL1        0.3515
     20 N          59.5565   89.2845   12.4528 N.2     1  UNL1       -0.0963
     21 H          59.2711   90.1196   12.8893 H       1  UNL1        0.3634
     22 C          61.2623   87.9781   10.9921 C.ar    1  UNL1        0.2267
     23 C          61.9226   87.8660    9.6499 C.ar    1  UNL1        0.0484
     24 C          62.1814   86.4131    9.3807 C.ar    1  UNL1        0.0441
     25 C          61.6811   85.6275   10.5566 C.ar    1  UNL1        0.1800
     26 O          61.1131   86.5948   11.5524 O.2     1  UNL1       -0.4429
@<TRIPOS>BOND
     1    10    11    1
     2    11    12    1
     3    12    13    1
     4    13    14    2
     5    14     1    1
     6     1     2    2
     7     2     3    1
     8     3     4    2
     9     4     5    1
    10     5     6    1
    11     6     7    2
    12     7    17    1
    13    17    19    1
    14    19    20    2
    15    19    22    1
    16    22    23   ar
    17    23    24   ar
    18    24    25   ar
    19    25    26   ar
    20     7     8    1
    21     8     9    2
    22    14    15    1
    23    15    16    1
    24    16    11    1
    25     9     1    1
    26     9     4    1
    27    26    22   ar
    28    17    18    1
    29    20    21    1
@<TRIPOS>MOLECULE
*****
 26 29 0 0 0
SMALL
GASTEIGER

@<TRIPOS>ATOM
      1 C          62.8243   90.0363   11.4196 C.2     1  UNL1        0.0162
      2 C          61.8709   90.5354   10.3746 C.2     1  UNL1        0.0981
      3 N          61.0994   89.3600    9.8519 N.2     1  UNL1       -0.2478
      4 C          61.5760   88.1345   10.5737 C.2     1  UNL1        0.0636
      5 C          61.1769   86.6920   10.4740 C.3     1  UNL1        0.0753
      6 C          61.8440   85.6675   11.3431 C.2     1  UNL1        0.0203
      7 C          62.9100   86.0855   12.3121 C.2     1  UNL1        0.1318
      8 C          63.3090   87.5280   12.4119 C.2     1  UNL1        0.0410
      9 C          62.6420   88.5525   11.5427 C.2     1  UNL1        0.0184
     10 C          66.6886   93.3870   14.5566 C.3     1  UNL1        0.0899
     11 N          65.7225   92.5493   13.7724 N.3     1  UNL1       -0.2674
     12 C          64.9456   91.4629   14.4552 C.3     1  UNL1        0.0986
     13 C          63.9796   90.6253   13.6709 C.2     1  UNL1       -0.0130
     14 C          63.7903   90.8739   12.2039 C.2     1  UNL1       -0.0222
     15 C          64.5672   91.9604   11.5210 C.3     1  UNL1        0.0434
     16 C          65.5333   92.7980   12.3053 C.3     1  UNL1        0.0771
     17 N          63.5770   85.0610   13.1813 N.pl3   1  UNL1       -0.1970
     18 H          64.5595   85.0093   13.2159 H       1  UNL1        0.2986
     19 C          62.7470   84.1151   13.9976 C.2     1  UNL1        0.3515
     20 N          62.0007   84.6167   15.1982 N.2     1  UNL1       -0.0963
     21 H          62.0557   85.5668   15.4504 H       1  UNL1        0.3634
     22 C          62.6633   82.6675   13.6133 C.ar    1  UNL1        0.2267
     23 C          62.8385   82.1106   12.2316 C.ar    1  UNL1        0.0484
     24 C          62.6731   80.6216   12.3076 C.ar    1  UNL1        0.0441
     25 C          62.3958   80.2584   13.7363 C.ar    1  UNL1        0.1800
     26 O          62.3897   81.5228   14.5432 O.2     1  UNL1       -0.4429
@<TRIPOS>BOND
     1    10    11    1
     2    11    12    1
     3    12    13    1
     4    13    14    2
     5    14     1    1
     6     1     2    2
     7     2     3    1
     8     3     4    2
     9     4     5    1
    10     5     6    1
    11     6     7    2
    12     7    17    1
    13    17    19    1
    14    19    20    2
    15    19    22    1
    16    22    23   ar
    17    23    24   ar
    18    24    25   ar
    19    25    26   ar
    20     7     8    1
    21     8     9    2
    22    14    15    1
    23    15    16    1
    24    16    11    1
    25     9     1    1
    26     9     4    1
    27    26    22   ar
    28    17    18    1
    29    20    21    1
@<TRIPOS>MOLECULE
*****
 26 29 0 0 0
SMALL
GASTEIGER

@<TRIPOS>ATOM
      1 C          63.6106   84.4206   12.2582 C.2     1  UNL1        0.0162
      2 C          64.5716   83.3594   11.8106 C.2     1  UNL1        0.0981
      3 N          64.4615   83.2334   10.3200 N.2     1  UNL1       -0.2478
      4 C          63.4325   84.2166    9.8463 C.2     1  UNL1        0.0636
      5 C          62.9065   84.5386    8.4791 C.3     1  UNL1        0.0753
      6 C          61.8545   85.5944    8.3097 C.2     1  UNL1        0.0203
      7 C          61.3286   86.3281    9.5076 C.2     1  UNL1        0.1318
      8 C          61.8547   86.0061   10.8749 C.2     1  UNL1        0.0410
      9 C          62.9066   84.9504   11.0443 C.2     1  UNL1        0.0184
     10 C          62.7360   86.2287   17.9121 C.3     1  UNL1        0.0899
     11 N          62.9547   85.7767   16.4987 N.3     1  UNL1       -0.2674
     12 C          63.9297   86.5039   15.6210 C.3     1  UNL1        0.0986
     13 C          64.1484   86.0519   14.2075 C.2     1  UNL1       -0.0130
     14 C          63.3920   84.8726   13.6717 C.2     1  UNL1       -0.0222
     15 C          62.4169   84.1453   14.5494 C.3     1  UNL1        0.0434
     16 C          62.1982   84.5974   15.9629 C.3     1  UNL1        0.0771
     17 N          60.2766   87.3839    9.3382 N.pl3   1  UNL1       -0.1970
     18 H          59.3290   87.1272    9.2640 H       1  UNL1        0.2986
     19 C          60.6683   88.8307    9.2819 C.2     1  UNL1        0.3515
     20 N          60.1920   89.6932    8.1508 N.2     1  UNL1       -0.0963
     21 H          59.6224   89.3097    7.4454 H       1  UNL1        0.3634
     22 C          61.5363   89.4152   10.3567 C.ar    1  UNL1        0.2267
     23 C          62.6951   90.3440   10.1462 C.ar    1  UNL1        0.0484
     24 C          63.2728   90.6763   11.4901 C.ar    1  UNL1        0.0441
     25 C          62.4710   89.9527   12.5311 C.ar    1  UNL1        0.1800
     26 O          61.3978   89.1733   11.8306 O.2     1  UNL1       -0.4429
@<TRIPOS>BOND
     1    10    11    1
     2    11    12    1
     3    12    13    1
     4    13    14    2
     5    14     1    1
     6     1     2    2
     7     2     3    1
     8     3     4    2
     9     4     5    1
    10     5     6    1
    11     6     7    2
    12     7    17    1
    13    17    19    1
    14    19    20    2
    15    19    22    1
    16    22    23   ar
    17    23    24   ar
    18    24    25   ar
    19    25    26   ar
    20     7     8    1
    21     8     9    2
    22    14    15    1
    23    15    16    1
    24    16    11    1
    25     9     1    1
    26     9     4    1
    27    26    22   ar
    28    17    18    1
    29    20    21    1
@<TRIPOS>MOLECULE
*****
 26 29 0 0 0
SMALL
GASTEIGER

@<TRIPOS>ATOM
      1 C          61.9834   86.4036   10.6725 C.2     1  UNL1        0.0162
      2 C          61.0372   86.5087    9.5133 C.2     1  UNL1        0.0981
      3 N          60.8014   87.9642    9.2380 N.2     1  UNL1       -0.2478
      4 C          61.6019   88.7587   10.2270 C.2     1  UNL1        0.0636
      5 C          61.7601   90.2357   10.4348 C.3     1  UNL1        0.0753
      6 C          62.6487   90.7482   11.5291 C.2     1  UNL1        0.0203
      7 C          63.3792   89.7837   12.4157 C.2     1  UNL1        0.1318
      8 C          63.2210   88.3066   12.2079 C.2     1  UNL1        0.0410
      9 C          62.3324   87.7941   11.1135 C.2     1  UNL1        0.0184
     10 C          64.0153   81.3143   13.1161 C.3     1  UNL1        0.0899
     11 N          63.5073   82.5866   12.5052 N.3     1  UNL1       -0.2674
     12 C          63.6821   82.8354   11.0363 C.3     1  UNL1        0.0986
     13 C          63.1741   84.1077   10.4255 C.2     1  UNL1       -0.0130
     14 C          62.4913   85.1312   11.2833 C.2     1  UNL1       -0.0222
     15 C          62.3166   84.8825   12.7523 C.3     1  UNL1        0.0434
     16 C          62.8245   83.6102   13.3632 C.3     1  UNL1        0.0771
     17 N          64.2678   90.2962   13.5101 N.pl3   1  UNL1       -0.1970
     18 H          65.1625   90.6459   13.2945 H       1  UNL1        0.2986
     19 C          63.7933   90.2760   14.9329 C.2     1  UNL1        0.3515
     20 N          63.5090   91.5641   15.6471 N.2     1  UNL1       -0.0963
     21 H          63.6338   92.4227   15.1820 H       1  UNL1        0.3634
     22 C          63.6030   88.9677   15.6415 C.ar    1  UNL1        0.2267
     23 C          62.9457   88.7753   16.9761 C.ar    1  UNL1        0.0484
     24 C          62.9731   87.3108   17.2994 C.ar    1  UNL1        0.0441
     25 C          63.6473   86.5981   16.1647 C.ar    1  UNL1        0.1800
     26 O          64.0366   87.6221   15.1401 O.2     1  UNL1       -0.4429
@<TRIPOS>BOND
     1    10    11    1
     2    11    12    1
     3    12    13    1
     4    13    14    2
     5    14     1    1
     6     1     2    2
     7     2     3    1
     8     3     4    2
     9     4     5    1
    10     5     6    1
    11     6     7    2
    12     7    17    1
    13    17    19    1
    14    19    20    2
    15    19    22    1
    16    22    23   ar
    17    23    24   ar
    18    24    25   ar
    19    25    26   ar
    20     7     8    1
    21     8     9    2
    22    14    15    1
    23    15    16    1
    24    16    11    1
    25     9     1    1
    26     9     4    1
    27    26    22   ar
    28    17    18    1
    29    20    21    1
@<TRIPOS>MOLECULE
*****
 26 29 0 0 0
SMALL
GASTEIGER

@<TRIPOS>ATOM
      1 C          62.8417   89.8148   11.4993 C.2     1  UNL1        0.0162
      2 C          61.9340   90.2989   10.4077 C.2     1  UNL1        0.0981
      3 N          61.1972   89.1136    9.8579 N.2     1  UNL1       -0.2478
      4 C          61.6496   87.8970   10.6098 C.2     1  UNL1        0.0636
      5 C          61.2673   86.4506   10.5017 C.3     1  UNL1        0.0753
      6 C          61.9015   85.4375   11.4081 C.2     1  UNL1        0.0203
      7 C          62.9179   85.8709   12.4225 C.2     1  UNL1        0.1318
      8 C          63.3002   87.3173   12.5306 C.2     1  UNL1        0.0410
      9 C          62.6660   88.3304   11.6242 C.2     1  UNL1        0.0184
     10 C          66.5288   93.2186   14.7888 C.3     1  UNL1        0.0899
     11 N          65.6070   92.3676   13.9664 N.3     1  UNL1       -0.2674
     12 C          65.4560   92.6291   12.4971 C.3     1  UNL1        0.0986
     13 C          64.5342   91.7781   11.6748 C.2     1  UNL1       -0.0130
     14 C          63.7635   90.6658   12.3216 C.2     1  UNL1       -0.0222
     15 C          63.9145   90.4043   13.7910 C.3     1  UNL1        0.0434
     16 C          64.8363   91.2552   14.6134 C.3     1  UNL1        0.0771
     17 N          63.5521   84.8578   13.3289 N.pl3   1  UNL1       -0.1970
     18 H          63.4191   83.8967   13.1623 H       1  UNL1        0.2986
     19 C          64.3888   85.3091   14.4891 C.2     1  UNL1        0.3515
     20 N          65.8556   84.9969   14.5224 N.2     1  UNL1       -0.0963
     21 H          66.2691   84.4958   13.7827 H       1  UNL1        0.3634
     22 C          63.7588   86.0727   15.6162 C.ar    1  UNL1        0.2267
     23 C          63.0033   85.4802   16.7686 C.ar    1  UNL1        0.0484
     24 C          62.5512   86.6041   17.6533 C.ar    1  UNL1        0.0441
     25 C          63.0274   87.8911   17.0476 C.ar    1  UNL1        0.1800
     26 O          63.7737   87.5627   15.7886 O.2     1  UNL1       -0.4429
@<TRIPOS>BOND
     1    10    11    1
     2    11    12    1
     3    12    13    1
     4    13    14    2
     5    14     1    1
     6     1     2    2
     7     2     3    1
     8     3     4    2
     9     4     5    1
    10     5     6    1
    11     6     7    2
    12     7    17    1
    13    17    19    1
    14    19    20    2
    15    19    22    1
    16    22    23   ar
    17    23    24   ar
    18    24    25   ar
    19    25    26   ar
    20     7     8    1
    21     8     9    2
    22    14    15    1
    23    15    16    1
    24    16    11    1
    25     9     1    1
    26     9     4    1
    27    26    22   ar
    28    17    18    1
    29    20    21    1
@<TRIPOS>MOLECULE
*****
 26 29 0 0 0
SMALL
GASTEIGER

@<TRIPOS>ATOM
      1 C          62.3946   86.2994   11.3228 C.2     1  UNL1        0.0162
      2 C          61.6358   86.5932   10.0626 C.2     1  UNL1        0.0981
      3 N          61.6184   88.0804    9.8681 N.2     1  UNL1       -0.2478
      4 C          62.3664   88.7058   11.0080 C.2     1  UNL1        0.0636
      5 C          62.6727   90.1353   11.3435 C.3     1  UNL1        0.0753
      6 C          63.4587   90.4642   12.5780 C.2     1  UNL1        0.0203
      7 C          63.9383   89.3634   13.4771 C.2     1  UNL1        0.1318
      8 C          63.6321   87.9339   13.1416 C.2     1  UNL1        0.0410
      9 C          62.8461   87.6051   11.9071 C.2     1  UNL1        0.0184
     10 C          63.4399   80.8572   13.6228 C.3     1  UNL1        0.0899
     11 N          63.1786   82.2178   13.0478 N.3     1  UNL1       -0.2674
     12 C          63.3243   82.4494   11.5730 C.3     1  UNL1        0.0986
     13 C          63.0630   83.8099   10.9980 C.2     1  UNL1       -0.0130
     14 C          62.6559   84.9389   11.8978 C.2     1  UNL1       -0.0222
     15 C          62.5101   84.7073   13.3727 C.3     1  UNL1        0.0434
     16 C          62.7715   83.3467   13.9477 C.3     1  UNL1        0.0771
     17 N          64.7243   89.6923   14.7117 N.pl3   1  UNL1       -0.1970
     18 H          65.3333   89.0235   15.1002 H       1  UNL1        0.2986
     19 C          64.5824   91.0403   15.3542 C.2     1  UNL1        0.3515
     20 N          63.4153   91.3237   16.2528 N.2     1  UNL1       -0.0963
     21 H          62.7424   90.6249   16.4209 H       1  UNL1        0.3634
     22 C          65.6077   92.1049   15.0981 C.ar    1  UNL1        0.2267
     23 C          66.7642   92.4478   15.9897 C.ar    1  UNL1        0.0484
     24 C          67.5277   93.5684   15.3481 C.ar    1  UNL1        0.0441
     25 C          66.8430   93.9179   14.0600 C.ar    1  UNL1        0.1800
     26 O          65.6564   93.0134   13.9055 O.2     1  UNL1       -0.4429
@<TRIPOS>BOND
     1    10    11    1
     2    11    12    1
     3    12    13    1
     4    13    14    2
     5    14     1    1
     6     1     2    2
     7     2     3    1
     8     3     4    2
     9     4     5    1
    10     5     6    1
    11     6     7    2
    12     7    17    1
    13    17    19    1
    14    19    20    2
    15    19    22    1
    16    22    23   ar
    17    23    24   ar
    18    24    25   ar
    19    25    26   ar
    20     7     8    1
    21     8     9    2
    22    14    15    1
    23    15    16    1
    24    16    11    1
    25     9     1    1
    26     9     4    1
    27    26    22   ar
    28    17    18    1
    29    20    21    1
@<TRIPOS>MOLECULE
*****
 26 29 0 0 0
SMALL
GASTEIGER

@<TRIPOS>ATOM
      1 C          61.7829   86.1548    9.8223 C.2     1  UNL1        0.0162
      2 C          61.0666   86.0422    8.5092 C.2     1  UNL1        0.0981
      3 N          60.4938   87.3881    8.1768 N.2     1  UNL1       -0.2478
      4 C          60.8560   88.3325    9.2845 C.2     1  UNL1        0.0636
      5 C          60.5632   89.7879    9.4984 C.3     1  UNL1        0.0753
      6 C          61.0673   90.4812   10.7294 C.2     1  UNL1        0.0203
      7 C          61.8640   89.7191   11.7463 C.2     1  UNL1        0.1318
      8 C          62.1568   88.2636   11.5324 C.2     1  UNL1        0.0410
      9 C          61.6528   87.5703   10.3015 C.2     1  UNL1        0.0184
     10 C          64.6632   81.7219   12.6601 C.3     1  UNL1        0.0899
     11 N          63.9432   82.8301   11.9507 N.3     1  UNL1       -0.2674
     12 C          64.1330   83.0243   10.4755 C.3     1  UNL1        0.0986
     13 C          63.4130   84.1325    9.7660 C.2     1  UNL1       -0.0130
     14 C          62.5030   85.0466   10.5317 C.2     1  UNL1       -0.0222
     15 C          62.3131   84.8524   12.0070 C.3     1  UNL1        0.0434
     16 C          63.0332   83.7442   12.7164 C.3     1  UNL1        0.0771
     17 N          62.3681   90.4124   12.9773 N.pl3   1  UNL1       -0.1970
     18 H          61.7305   90.7700   13.6368 H       1  UNL1        0.2986
     19 C          63.8434   90.5610   13.2035 C.2     1  UNL1        0.3515
     20 N          64.5650   89.6007   14.1019 N.2     1  UNL1       -0.0963
     21 H          64.0702   88.8728   14.5431 H       1  UNL1        0.3634
     22 C          64.5974   91.6700   12.5312 C.ar    1  UNL1        0.2267
     23 C          64.6423   91.9375   11.0559 C.ar    1  UNL1        0.0484
     24 C          65.5114   93.1390   10.8291 C.ar    1  UNL1        0.0441
     25 C          66.0035   93.6138   12.1642 C.ar    1  UNL1        0.1800
     26 O          65.4386   92.7059   13.2161 O.2     1  UNL1       -0.4429
@<TRIPOS>BOND
     1    10    11    1
     2    11    12    1
     3    12    13    1
     4    13    14    2
     5    14     1    1
     6     1     2    2
     7     2     3    1
     8     3     4    2
     9     4     5    1
    10     5     6    1
    11     6     7    2
    12     7    17    1
    13    17    19    1
    14    19    20    2
    15    19    22    1
    16    22    23   ar
    17    23    24   ar
    18    24    25   ar
    19    25    26   ar
    20     7     8    1
    21     8     9    2
    22    14    15    1
    23    15    16    1
    24    16    11    1
    25     9     1    1
    26     9     4    1
    27    26    22   ar
    28    17    18    1
    29    20    21    1
