@<TRIPOS>MOLECULE
*****
 18 19 0 0 0
SMALL
GASTEIGER

@<TRIPOS>ATOM
      1 C          63.0942   84.4228   10.1167 C.2     1  UNL1        0.0421
      2 C          62.1249   85.3882   10.7319 C.2     1  UNL1        0.0033
      3 C          61.3610   86.3414    9.8612 C.ar    1  UNL1        0.0010
      4 C          60.8122   85.8788    8.5441 C.ar    1  UNL1        0.0009
      5 C          60.0484   86.8319    7.6736 C.ar    1  UNL1        0.0122
      6 C          59.8334   88.2477    8.1201 C.ar    1  UNL1        0.0682
      7 CL         59.0695   89.2009    7.2494 Cl      1  UNL1       -0.0814
      8 C          60.3822   88.7103    9.4371 C.ar    1  UNL1        0.0682
      9 CL         60.1672   90.1261    9.8836 Cl      1  UNL1       -0.0814
     10 C          61.1460   87.7571   10.3077 C.ar    1  UNL1        0.0122
     11 O          64.9155   82.5901   10.3889 O.2     1  UNL1       -0.2865
     12 C          63.8581   83.4696   10.9874 C.2     1  UNL1        0.1971
     13 C          63.5645   83.3960   12.4565 C.ar    1  UNL1        0.0581
     14 C          62.5013   82.4671   12.9633 C.ar    1  UNL1        0.0063
     15 C          62.2078   82.3935   14.4324 C.ar    1  UNL1        0.0208
     16 C          62.9774   83.2488   15.3948 C.ar    1  UNL1        0.0989
     17 N          64.0406   84.1777   14.8881 N.ar    1  UNL1       -0.2422
     18 C          64.3341   84.2513   13.4189 C.ar    1  UNL1        0.1020
@<TRIPOS>BOND
     1    11    12    2
     2    12     1    1
     3     1     2    2
     4     2     3    1
     5     3     4   ar
     6     4     5   ar
     7     5     6   ar
     8     6     7    1
     9     6     8   ar
    10     8     9    1
    11     8    10   ar
    12    12    13    1
    13    13    14   ar
    14    14    15   ar
    15    15    16   ar
    16    16    17   ar
    17    17    18   ar
    18    10     3   ar
    19    18    13   ar
@<TRIPOS>MOLECULE
*****
 18 19 0 0 0
SMALL
GASTEIGER

@<TRIPOS>ATOM
      1 C          62.3367   85.0753   11.5668 C.2     1  UNL1        0.0421
      2 C          62.2903   86.5743   11.5397 C.2     1  UNL1        0.0033
      3 C          61.5556   87.2822   10.4400 C.ar    1  UNL1        0.0010
      4 C          61.6919   88.7676   10.2821 C.ar    1  UNL1        0.0009
      5 C          60.9572   89.4754    9.1825 C.ar    1  UNL1        0.0122
      6 C          60.0862   88.6978    8.2408 C.ar    1  UNL1        0.0682
      7 CL         59.3515   89.4058    7.1411 Cl      1  UNL1       -0.0814
      8 C          59.9499   87.2125    8.3987 C.ar    1  UNL1        0.0682
      9 CL         59.0790   86.4349    7.4570 Cl      1  UNL1       -0.0814
     10 C          60.6846   86.5046    9.4983 C.ar    1  UNL1        0.0122
     11 O          64.0527   85.1180   13.5170 O.2     1  UNL1       -0.2865
     12 C          63.0714   84.3674   12.6664 C.2     1  UNL1        0.1971
     13 C          62.8247   82.9089   12.9154 C.ar    1  UNL1        0.0581
     14 C          63.0197   81.9156   11.8086 C.ar    1  UNL1        0.0063
     15 C          62.7730   80.4572   12.0576 C.ar    1  UNL1        0.0208
     16 C          62.3313   79.9920   13.4135 C.ar    1  UNL1        0.0989
     17 N          62.1362   80.9854   14.5204 N.ar    1  UNL1       -0.2422
     18 C          62.3830   82.4439   14.2713 C.ar    1  UNL1        0.1020
@<TRIPOS>BOND
     1    11    12    2
     2    12     1    1
     3     1     2    2
     4     2     3    1
     5     3     4   ar
     6     4     5   ar
     7     5     6   ar
     8     6     7    1
     9     6     8   ar
    10     8     9    1
    11     8    10   ar
    12    12    13    1
    13    13    14   ar
    14    14    15   ar
    15    15    16   ar
    16    16    17   ar
    17    17    18   ar
    18    10     3   ar
    19    18    13   ar
@<TRIPOS>MOLECULE
*****
 18 19 0 0 0
SMALL
GASTEIGER

@<TRIPOS>ATOM
      1 C          64.0254   91.4384   10.8292 C.2     1  UNL1        0.0421
      2 C          63.2381   90.4140   11.5910 C.2     1  UNL1        0.0033
      3 C          62.2877   89.5074   10.8664 C.ar    1  UNL1        0.0010
      4 C          61.2808   90.0824    9.9149 C.ar    1  UNL1        0.0009
      5 C          60.3305   89.1758    9.1904 C.ar    1  UNL1        0.0122
      6 C          60.3872   87.6942    9.4174 C.ar    1  UNL1        0.0682
      7 CL         59.4368   86.7876    8.6928 Cl      1  UNL1       -0.0814
      8 C          61.3941   87.1191   10.3688 C.ar    1  UNL1        0.0682
      9 CL         61.4507   85.6375   10.5958 Cl      1  UNL1       -0.0814
     10 C          62.3444   88.0257   11.0934 C.ar    1  UNL1        0.0122
     11 O          64.9519   92.4135   13.0520 O.2     1  UNL1       -0.2865
     12 C          64.9758   92.3450   11.5538 C.2     1  UNL1        0.1971
     13 C          65.9500   93.1831   10.7801 C.ar    1  UNL1        0.0581
     14 C          67.1214   92.5372   10.1015 C.ar    1  UNL1        0.0063
     15 C          68.0957   93.3752    9.3278 C.ar    1  UNL1        0.0208
     16 C          67.8984   94.8592    9.2328 C.ar    1  UNL1        0.0989
     17 N          66.7270   95.5051    9.9115 N.ar    1  UNL1       -0.2422
     18 C          65.7528   94.6670   10.6851 C.ar    1  UNL1        0.1020
@<TRIPOS>BOND
     1    11    12    2
     2    12     1    1
     3     1     2    2
     4     2     3    1
     5     3     4   ar
     6     4     5   ar
     7     5     6   ar
     8     6     7    1
     9     6     8   ar
    10     8     9    1
    11     8    10   ar
    12    12    13    1
    13    13    14   ar
    14    14    15   ar
    15    15    16   ar
    16    16    17   ar
    17    17    18   ar
    18    10     3   ar
    19    18    13   ar
@<TRIPOS>MOLECULE
*****
 18 19 0 0 0
SMALL
GASTEIGER

@<TRIPOS>ATOM
      1 C          64.1004   90.2855   14.2696 C.2     1  UNL1        0.0421
      2 C          63.4754   90.7538   12.9890 C.2     1  UNL1        0.0033
      3 C          62.9683   89.7540   11.9923 C.ar    1  UNL1        0.0010
      4 C          62.4223   90.2190   10.6749 C.ar    1  UNL1        0.0009
      5 C          61.9153   89.2192    9.6783 C.ar    1  UNL1        0.0122
      6 C          61.9544   87.7544    9.9991 C.ar    1  UNL1        0.0682
      7 CL         61.4473   86.7546    9.0023 Cl      1  UNL1       -0.0814
      8 C          62.5004   87.2894   11.3165 C.ar    1  UNL1        0.0682
      9 CL         62.5395   85.8246   11.6372 Cl      1  UNL1       -0.0814
     10 C          63.0074   88.2892   12.3131 C.ar    1  UNL1        0.0122
     11 O          63.7204   91.7449   16.3852 O.2     1  UNL1       -0.2865
     12 C          64.6074   91.2853   15.2663 C.2     1  UNL1        0.1971
     13 C          66.0014   91.8255   15.1441 C.ar    1  UNL1        0.0581
     14 C          66.5915   92.6376   16.2586 C.ar    1  UNL1        0.0063
     15 C          67.9854   93.1778   16.1364 C.ar    1  UNL1        0.0208
     16 C          68.7894   92.9058   14.8996 C.ar    1  UNL1        0.0989
     17 N          68.1994   92.0936   13.7850 N.ar    1  UNL1       -0.2422
     18 C          66.8053   91.5535   13.9073 C.ar    1  UNL1        0.1020
@<TRIPOS>BOND
     1    11    12    2
     2    12     1    1
     3     1     2    2
     4     2     3    1
     5     3     4   ar
     6     4     5   ar
     7     5     6   ar
     8     6     7    1
     9     6     8   ar
    10     8     9    1
    11     8    10   ar
    12    12    13    1
    13    13    14   ar
    14    14    15   ar
    15    15    16   ar
    16    16    17   ar
    17    17    18   ar
    18    10     3   ar
    19    18    13   ar
@<TRIPOS>MOLECULE
*****
 18 19 0 0 0
SMALL
GASTEIGER

@<TRIPOS>ATOM
      1 C          63.0254   89.0794   12.2284 C.2     1  UNL1        0.0421
      2 C          61.7395   89.2245   11.4699 C.2     1  UNL1        0.0033
      3 C          61.3946   88.2480   10.3847 C.ar    1  UNL1        0.0010
      4 C          60.0281   88.2658    9.7664 C.ar    1  UNL1        0.0009
      5 C          59.6832   87.2894    8.6812 C.ar    1  UNL1        0.0122
      6 C          60.7048   86.2952    8.2144 C.ar    1  UNL1        0.0682
      7 CL         60.3599   85.3187    7.1292 Cl      1  UNL1       -0.0814
      8 C          62.0713   86.2774    8.8328 C.ar    1  UNL1        0.0682
      9 CL         63.0929   85.2832    8.3660 Cl      1  UNL1       -0.0814
     10 C          62.4162   87.2538    9.9179 C.ar    1  UNL1        0.0122
     11 O          62.7086   89.9504   14.6556 O.2     1  UNL1       -0.2865
     12 C          63.3704   90.0559   13.3136 C.2     1  UNL1        0.1971
     13 C          64.3771   91.1378   13.0569 C.ar    1  UNL1        0.0581
     14 C          64.4820   91.7567   11.6945 C.ar    1  UNL1        0.0063
     15 C          65.4887   92.8386   11.4377 C.ar    1  UNL1        0.0208
     16 C          66.3906   93.3016   12.5433 C.ar    1  UNL1        0.0989
     17 N          66.2857   92.6827   13.9057 N.ar    1  UNL1       -0.2422
     18 C          65.2789   91.6008   14.1624 C.ar    1  UNL1        0.1020
@<TRIPOS>BOND
     1    11    12    2
     2    12     1    1
     3     1     2    2
     4     2     3    1
     5     3     4   ar
     6     4     5   ar
     7     5     6   ar
     8     6     7    1
     9     6     8   ar
    10     8     9    1
    11     8    10   ar
    12    12    13    1
    13    13    14   ar
    14    14    15   ar
    15    15    16   ar
    16    16    17   ar
    17    17    18   ar
    18    10     3   ar
    19    18    13   ar
@<TRIPOS>MOLECULE
*****
 18 19 0 0 0
SMALL
GASTEIGER

@<TRIPOS>ATOM
      1 C          63.0898   89.1284   12.5486 C.2     1  UNL1        0.0421
      2 C          61.7821   89.3415   11.8453 C.2     1  UNL1        0.0033
      3 C          61.3794   88.4353   10.7198 C.ar    1  UNL1        0.0010
      4 C          61.8241   87.0028   10.7145 C.ar    1  UNL1        0.0009
      5 C          61.4213   86.0966    9.5891 C.ar    1  UNL1        0.0122
      6 C          60.5738   86.6230    8.4690 C.ar    1  UNL1        0.0682
      7 CL         60.1710   85.7168    7.3435 Cl      1  UNL1       -0.0814
      8 C          60.1291   88.0555    8.4743 C.ar    1  UNL1        0.0682
      9 CL         59.2816   88.5819    7.3542 Cl      1  UNL1       -0.0814
     10 C          60.5318   88.9617    9.5997 C.ar    1  UNL1        0.0122
     11 O          62.7534   89.9846   14.9784 O.2     1  UNL1       -0.2865
     12 C          63.4925   90.0346   13.6741 C.2     1  UNL1        0.1971
     13 C          64.6344   90.9907   13.4952 C.ar    1  UNL1        0.0581
     14 C          65.7477   91.0256   14.4998 C.ar    1  UNL1        0.0063
     15 C          66.8896   91.9817   14.3209 C.ar    1  UNL1        0.0208
     16 C          66.9181   92.9029   13.1374 C.ar    1  UNL1        0.0989
     17 N          65.8047   92.8680   12.1328 N.ar    1  UNL1       -0.2422
     18 C          64.6628   91.9118   12.3118 C.ar    1  UNL1        0.1020
@<TRIPOS>BOND
     1    11    12    2
     2    12     1    1
     3     1     2    2
     4     2     3    1
     5     3     4   ar
     6     4     5   ar
     7     5     6   ar
     8     6     7    1
     9     6     8   ar
    10     8     9    1
    11     8    10   ar
    12    12    13    1
    13    13    14   ar
    14    14    15   ar
    15    15    16   ar
    16    16    17   ar
    17    17    18   ar
    18    10     3   ar
    19    18    13   ar
@<TRIPOS>MOLECULE
*****
 18 19 0 0 0
SMALL
GASTEIGER

@<TRIPOS>ATOM
      1 C          62.7258   85.5572   12.3290 C.2     1  UNL1        0.0421
      2 C          62.2119   85.1190   10.9898 C.2     1  UNL1        0.0033
      3 C          61.4965   86.0961   10.1045 C.ar    1  UNL1        0.0010
      4 C          61.0302   85.6727    8.7432 C.ar    1  UNL1        0.0009
      5 C          60.3149   86.6498    7.8580 C.ar    1  UNL1        0.0122
      6 C          60.0659   88.0503    8.3342 C.ar    1  UNL1        0.0682
      7 CL         59.3506   89.0274    7.4489 Cl      1  UNL1       -0.0814
      8 C          60.5323   88.4736    9.6955 C.ar    1  UNL1        0.0682
      9 CL         60.2833   89.8741   10.1716 Cl      1  UNL1       -0.0814
     10 C          61.2476   87.4965   10.5806 C.ar    1  UNL1        0.0122
     11 O          64.5798   85.0419   14.0746 O.2     1  UNL1       -0.2865
     12 C          63.4411   84.5801   13.2143 C.2     1  UNL1        0.1971
     13 C          63.0178   83.1413   13.2392 C.ar    1  UNL1        0.0581
     14 C          62.0266   82.6688   14.2611 C.ar    1  UNL1        0.0063
     15 C          61.6033   81.2300   14.2860 C.ar    1  UNL1        0.0208
     16 C          62.1711   80.2637   13.2890 C.ar    1  UNL1        0.0989
     17 N          63.1622   80.7363   12.2671 N.ar    1  UNL1       -0.2422
     18 C          63.5856   82.1752   12.2422 C.ar    1  UNL1        0.1020
@<TRIPOS>BOND
     1    11    12    2
     2    12     1    1
     3     1     2    2
     4     2     3    1
     5     3     4   ar
     6     4     5   ar
     7     5     6   ar
     8     6     7    1
     9     6     8   ar
    10     8     9    1
    11     8    10   ar
    12    12    13    1
    13    13    14   ar
    14    14    15   ar
    15    15    16   ar
    16    16    17   ar
    17    17    18   ar
    18    10     3   ar
    19    18    13   ar
@<TRIPOS>MOLECULE
*****
 18 19 0 0 0
SMALL
GASTEIGER

@<TRIPOS>ATOM
      1 C          65.8836   91.4998   13.9093 C.2     1  UNL1        0.0421
      2 C          64.5421   91.3155   14.5547 C.2     1  UNL1        0.0033
      3 C          64.1654   89.9845   15.1350 C.ar    1  UNL1        0.0010
      4 C          63.4073   89.9174   16.4275 C.ar    1  UNL1        0.0009
      5 C          63.0307   88.5864   17.0078 C.ar    1  UNL1        0.0122
      6 C          63.4121   87.3227   16.2955 C.ar    1  UNL1        0.0682
      7 CL         63.0354   85.9917   16.8758 Cl      1  UNL1       -0.0814
      8 C          64.1702   87.3898   15.0029 C.ar    1  UNL1        0.0682
      9 CL         64.5517   86.1261   14.2906 Cl      1  UNL1       -0.0814
     10 C          64.5469   88.7208   14.4227 C.ar    1  UNL1        0.0122
     11 O          66.1158   94.0760   14.1528 O.2     1  UNL1       -0.2865
     12 C          66.2602   92.8307   13.3291 C.2     1  UNL1        0.1971
     13 C          66.7814   92.9164   11.9251 C.ar    1  UNL1        0.0581
     14 C          67.7966   91.9245   11.4401 C.ar    1  UNL1        0.0063
     15 C          68.3178   92.0101   10.0362 C.ar    1  UNL1        0.0208
     16 C          67.8236   93.0878    9.1172 C.ar    1  UNL1        0.0989
     17 N          66.8083   94.0798    9.6022 N.ar    1  UNL1       -0.2422
     18 C          66.2872   93.9941   11.0062 C.ar    1  UNL1        0.1020
@<TRIPOS>BOND
     1    11    12    2
     2    12     1    1
     3     1     2    2
     4     2     3    1
     5     3     4   ar
     6     4     5   ar
     7     5     6   ar
     8     6     7    1
     9     6     8   ar
    10     8     9    1
    11     8    10   ar
    12    12    13    1
    13    13    14   ar
    14    14    15   ar
    15    15    16   ar
    16    16    17   ar
    17    17    18   ar
    18    10     3   ar
    19    18    13   ar
@<TRIPOS>MOLECULE
*****
 18 19 0 0 0
SMALL
GASTEIGER

@<TRIPOS>ATOM
      1 C          63.8534   90.1068   14.2739 C.2     1  UNL1        0.0421
      2 C          63.0954   90.5438   13.0556 C.2     1  UNL1        0.0033
      3 C          62.6173   89.5246   12.0642 C.ar    1  UNL1        0.0010
      4 C          63.0105   88.0854   12.2192 C.ar    1  UNL1        0.0009
      5 C          62.5325   87.0664   11.2278 C.ar    1  UNL1        0.0122
      6 C          61.6612   87.4865   10.0813 C.ar    1  UNL1        0.0682
      7 CL         61.1831   86.4674    9.0899 Cl      1  UNL1       -0.0814
      8 C          61.2679   88.9257    9.9263 C.ar    1  UNL1        0.0682
      9 CL         60.3967   89.3458    8.7798 Cl      1  UNL1       -0.0814
     10 C          61.7460   89.9448   10.9177 C.ar    1  UNL1        0.0122
     11 O          63.4293   91.5704   16.3782 O.2     1  UNL1       -0.2865
     12 C          64.3315   91.1260   15.2654 C.2     1  UNL1        0.1971
     13 C          65.7117   91.7006   15.1439 C.ar    1  UNL1        0.0581
     14 C          66.5754   91.3365   13.9728 C.ar    1  UNL1        0.0063
     15 C          67.9556   91.9111   13.8513 C.ar    1  UNL1        0.0208
     16 C          68.4722   92.8500   14.9010 C.ar    1  UNL1        0.0989
     17 N          67.6085   93.2141   16.0721 N.ar    1  UNL1       -0.2422
     18 C          66.2282   92.6394   16.1935 C.ar    1  UNL1        0.1020
@<TRIPOS>BOND
     1    11    12    2
     2    12     1    1
     3     1     2    2
     4     2     3    1
     5     3     4   ar
     6     4     5   ar
     7     5     6   ar
     8     6     7    1
     9     6     8   ar
    10     8     9    1
    11     8    10   ar
    12    12    13    1
    13    13    14   ar
    14    14    15   ar
    15    15    16   ar
    16    16    17   ar
    17    17    18   ar
    18    10     3   ar
    19    18    13   ar
