@<TRIPOS>MOLECULE
*****
 32 35 0 0 0
SMALL
GASTEIGER

@<TRIPOS>ATOM
      1 C          61.2897   89.6268   10.8369 C.3     1  UNL1        0.0634
      2 C          61.2022   88.1327   10.9376 C.3     1  UNL1        0.0393
      3 C          59.8633   87.7848   11.5175 C.3     1  UNL1        0.1452
      4 O          59.1233   89.0638   11.7753 O.3     1  UNL1       -0.3306
      5 C          60.0048   90.2023   11.3547 C.3     1  UNL1        0.2320
      6 O          59.6617   91.6601   11.4373 O.3     1  UNL1       -0.3601
      7 H          60.4040   92.1865   11.1015 H       1  UNL1        0.2129
      8 C          62.4570   90.4082   10.3109 C.3     1  UNL1        0.0317
      9 C          64.5229   91.0614   13.6359 C.ar    1  UNL1        0.1751
     10 C          63.5061   90.5013   12.6859 C.ar    1  UNL1        0.0360
     11 C          63.4739   90.9684   11.2608 C.ar    1  UNL1       -0.0158
     12 C          64.4584   91.9954   10.7857 C.ar    1  UNL1        0.0360
     13 C          65.4752   92.5555   11.7356 C.ar    1  UNL1        0.1751
     14 C          65.5074   92.0885   13.1607 C.ar    1  UNL1        0.2060
     15 C          63.4671   89.7037   15.5831 C.3     1  UNL1        0.2526
     16 O          64.5552   90.5944   15.0609 O.3     1  UNL1       -0.4683
     17 O          66.4597   93.5826   11.2605 O.3     1  UNL1       -0.4683
     18 C          66.0584   95.0257   11.1807 C.3     1  UNL1        0.2526
     19 O          66.5243   92.6486   14.1107 O.3     1  UNL1       -0.4654
     20 C          67.8964   92.0466   14.1812 C.3     1  UNL1        0.2528
     21 C          62.2667   87.1578   10.5298 C.3     1  UNL1        0.0292
     22 C          62.6680   86.0525   11.4612 C.ar    1  UNL1       -0.0159
     23 C          63.3358   86.3756   12.7648 C.ar    1  UNL1        0.0360
     24 C          63.7371   85.2703   13.6962 C.ar    1  UNL1        0.1753
     25 C          63.4705   83.8419   13.3239 C.ar    1  UNL1        0.2100
     26 C          62.8026   83.5188   12.0202 C.ar    1  UNL1        0.1792
     27 C          62.4014   84.6240   11.0888 C.ar    1  UNL1        0.0361
     28 O          62.6701   82.0277   11.9242 O.3     1  UNL1       -0.4345
     29 C          63.2561   81.4294   13.1686 C.3     1  UNL1        0.4295
     30 O          63.7508   82.5506   14.0337 O.3     1  UNL1       -0.4315
     31 O          64.4049   85.5935   14.9998 O.3     1  UNL1       -0.4683
     32 C          63.5781   85.8135   16.2319 C.3     1  UNL1        0.2526
@<TRIPOS>BOND
     1    15    16    1
     2    16     9    1
     3     9    10   ar
     4    10    11   ar
     5    11     8    1
     6     1     8    1
     7     1     2    1
     8     2    21    1
     9    21    22    1
    10    22    23   ar
    11    23    24   ar
    12    24    31    1
    13    31    32    1
    14    24    25   ar
    15    25    26   ar
    16    26    27   ar
    17    26    28    1
    18    28    29    1
    19    29    30    1
    20     2     3    1
    21     3     4    1
    22     4     5    1
    23     5     6    1
    24    11    12   ar
    25    12    13   ar
    26    13    17    1
    27    17    18    1
    28    13    14   ar
    29    14    19    1
    30    19    20    1
    31    14     9   ar
    32     5     1    1
    33    27    22   ar
    34    30    25    1
    35     6     7    1
@<TRIPOS>MOLECULE
*****
 32 35 0 0 0
SMALL
GASTEIGER

@<TRIPOS>ATOM
      1 C          61.3031   89.6005   10.8468 C.3     1  UNL1        0.0634
      2 C          61.2196   88.1063   10.9491 C.3     1  UNL1        0.0393
      3 C          59.8849   87.7558   11.5370 C.3     1  UNL1        0.1452
      4 O          59.1434   89.0333   11.7981 O.3     1  UNL1       -0.3306
      5 C          60.0199   90.1735   11.3715 C.3     1  UNL1        0.2320
      6 O          59.6740   91.6306   11.4549 O.3     1  UNL1       -0.3601
      7 H          60.4132   92.1584   11.1145 H       1  UNL1        0.2129
      8 C          62.4656   90.3842   10.3135 C.3     1  UNL1        0.0317
      9 C          65.4735   92.5597   11.7169 C.ar    1  UNL1        0.1751
     10 C          64.4600   91.9848   10.7724 C.ar    1  UNL1        0.0360
     11 C          63.4792   90.9591   11.2581 C.ar    1  UNL1       -0.0158
     12 C          63.5118   90.5084   12.6884 C.ar    1  UNL1        0.0360
     13 C          64.5253   91.0833   13.6329 C.ar    1  UNL1        0.1751
     14 C          65.5062   92.1090   13.1472 C.ar    1  UNL1        0.2060
     15 C          66.1448   95.0461   11.3744 C.3     1  UNL1        0.2526
     16 O          66.4543   93.5854   11.2312 O.3     1  UNL1       -0.4683
     17 O          64.5580   90.6325   15.0633 O.3     1  UNL1       -0.4683
     18 C          63.4695   89.7489   15.5962 C.3     1  UNL1        0.2526
     19 O          66.5197   92.6839   14.0918 O.3     1  UNL1       -0.4654
     20 C          67.8494   92.0116   14.2653 C.3     1  UNL1        0.2528
     21 C          62.2840   87.1335   10.5361 C.3     1  UNL1        0.0292
     22 C          62.6778   86.0168   11.4571 C.ar    1  UNL1       -0.0159
     23 C          63.3459   86.3234   12.7646 C.ar    1  UNL1        0.0360
     24 C          63.7396   85.2068   13.6856 C.ar    1  UNL1        0.1753
     25 C          63.4653   83.7837   13.2990 C.ar    1  UNL1        0.2100
     26 C          62.7971   83.4771   11.9915 C.ar    1  UNL1        0.1792
     27 C          62.4034   84.5936   11.0705 C.ar    1  UNL1        0.0361
     28 O          62.6562   81.9878   11.8809 O.3     1  UNL1       -0.4345
     29 C          63.2373   81.3740   13.1201 C.3     1  UNL1        0.4295
     30 O          63.7373   82.4839   13.9965 O.3     1  UNL1       -0.4315
     31 O          64.4078   85.5134   14.9931 O.3     1  UNL1       -0.4683
     32 C          63.5796   85.8450   16.1990 C.3     1  UNL1        0.2526
@<TRIPOS>BOND
     1    15    16    1
     2    16     9    1
     3     9    10   ar
     4    10    11   ar
     5    11     8    1
     6     1     8    1
     7     1     2    1
     8     2    21    1
     9    21    22    1
    10    22    23   ar
    11    23    24   ar
    12    24    31    1
    13    31    32    1
    14    24    25   ar
    15    25    26   ar
    16    26    27   ar
    17    26    28    1
    18    28    29    1
    19    29    30    1
    20     2     3    1
    21     3     4    1
    22     4     5    1
    23     5     6    1
    24    11    12   ar
    25    12    13   ar
    26    13    17    1
    27    17    18    1
    28    13    14   ar
    29    14    19    1
    30    19    20    1
    31    14     9   ar
    32     5     1    1
    33    27    22   ar
    34    30    25    1
    35     6     7    1
@<TRIPOS>MOLECULE
*****
 32 35 0 0 0
SMALL
GASTEIGER

@<TRIPOS>ATOM
      1 C          61.3905   87.8535    9.3795 C.3     1  UNL1        0.0634
      2 C          61.6745   89.2432    9.8674 C.3     1  UNL1        0.0393
      3 C          60.3630   89.9490   10.0458 C.3     1  UNL1        0.1452
      4 O          59.2684   88.9956    9.6680 O.3     1  UNL1       -0.3306
      5 C          59.9033   87.7004    9.2562 C.3     1  UNL1        0.2320
      6 O          59.1785   86.4687    8.8010 O.3     1  UNL1       -0.3601
      7 H          59.8219   85.7728    8.5942 H       1  UNL1        0.2129
      8 C          62.4138   86.8016    9.0692 C.3     1  UNL1        0.0317
      9 C          62.9595   85.0646   12.5956 C.ar    1  UNL1        0.1751
     10 C          62.5997   86.0892   11.5608 C.ar    1  UNL1        0.0360
     11 C          62.7736   85.7769   10.1040 C.ar    1  UNL1       -0.0158
     12 C          63.3072   84.4401    9.6820 C.ar    1  UNL1        0.0360
     13 C          63.6669   83.4156   10.7168 C.ar    1  UNL1        0.1751
     14 C          63.4931   83.7278   12.1736 C.ar    1  UNL1        0.2060
     15 C          63.9869   85.6357   14.9125 C.3     1  UNL1        0.2526
     16 O          62.7856   85.3769   14.0524 O.3     1  UNL1       -0.4683
     17 O          64.2006   82.0787   10.2948 O.3     1  UNL1       -0.4683
     18 C          63.3115   80.8711   10.3301 C.3     1  UNL1        0.2526
     19 O          63.8529   82.7032   13.2084 O.3     1  UNL1       -0.4654
     20 C          62.7751   81.9037   13.8786 C.3     1  UNL1        0.2528
     21 C          63.0318   89.8249   10.1309 C.3     1  UNL1        0.0292
     22 C          63.3926   90.2927   11.5097 C.ar    1  UNL1       -0.0159
     23 C          64.3481   91.4351   11.6880 C.ar    1  UNL1        0.0360
     24 C          64.7089   91.9029   13.0668 C.ar    1  UNL1        0.1753
     25 C          64.1141   91.2283   14.2672 C.ar    1  UNL1        0.2100
     26 C          63.1585   90.0859   14.0889 C.ar    1  UNL1        0.1792
     27 C          62.7977   89.6181   12.7102 C.ar    1  UNL1        0.0361
     28 O          62.7346   89.6193   15.4500 O.3     1  UNL1       -0.4345
     29 C          63.4283   90.4734   16.4696 C.3     1  UNL1        0.4295
     30 O          64.2808   91.4678   15.7386 O.3     1  UNL1       -0.4315
     31 O          65.6645   93.0453   13.2451 O.3     1  UNL1       -0.4683
     32 C          66.0982   93.8526   12.0576 C.3     1  UNL1        0.2526
@<TRIPOS>BOND
     1    15    16    1
     2    16     9    1
     3     9    10   ar
     4    10    11   ar
     5    11     8    1
     6     1     8    1
     7     1     2    1
     8     2    21    1
     9    21    22    1
    10    22    23   ar
    11    23    24   ar
    12    24    31    1
    13    31    32    1
    14    24    25   ar
    15    25    26   ar
    16    26    27   ar
    17    26    28    1
    18    28    29    1
    19    29    30    1
    20     2     3    1
    21     3     4    1
    22     4     5    1
    23     5     6    1
    24    11    12   ar
    25    12    13   ar
    26    13    17    1
    27    17    18    1
    28    13    14   ar
    29    14    19    1
    30    19    20    1
    31    14     9   ar
    32     5     1    1
    33    27    22   ar
    34    30    25    1
    35     6     7    1
@<TRIPOS>MOLECULE
*****
 32 35 0 0 0
SMALL
GASTEIGER

@<TRIPOS>ATOM
      1 C          61.2057   86.5983    8.8819 C.3     1  UNL1        0.0634
      2 C          59.9917   87.4110    9.2220 C.3     1  UNL1        0.0393
      3 C          58.9601   87.1703    8.1600 C.3     1  UNL1        0.1452
      4 O          59.5366   86.2087    7.1635 O.3     1  UNL1       -0.3306
      5 C          60.9244   85.8552    7.6095 C.3     1  UNL1        0.2320
      6 O          61.8657   84.9224    6.9068 O.3     1  UNL1       -0.3601
      7 H          62.6975   84.8682    7.4029 H       1  UNL1        0.2129
      8 C          62.4776   86.5391    9.6748 C.3     1  UNL1        0.0317
      9 C          63.4771   82.9593   11.0662 C.ar    1  UNL1        0.1751
     10 C          63.2385   84.0942   10.1149 C.ar    1  UNL1        0.0360
     11 C          62.7162   85.4041   10.6261 C.ar    1  UNL1       -0.0158
     12 C          62.4325   85.5791   12.0886 C.ar    1  UNL1        0.0360
     13 C          62.6710   84.4442   13.0399 C.ar    1  UNL1        0.1751
     14 C          63.1933   83.1342   12.5287 C.ar    1  UNL1        0.2060
     15 C          63.0544   80.5120   10.3032 C.3     1  UNL1        0.2526
     16 O          63.9994   81.6493   10.5550 O.3     1  UNL1       -0.4683
     17 O          62.3873   84.6191   14.5024 O.3     1  UNL1       -0.4683
     18 C          63.4737   85.0828   15.4269 C.3     1  UNL1        0.2526
     19 O          63.4319   81.9993   13.4800 O.3     1  UNL1       -0.4654
     20 C          62.2826   81.1523   13.9403 C.3     1  UNL1        0.2528
     21 C          59.8365   88.3072   10.4148 C.3     1  UNL1        0.0292
     22 C          61.0020   89.1164   10.9017 C.ar    1  UNL1       -0.0159
     23 C          61.4696   88.9797   12.3203 C.ar    1  UNL1        0.0360
     24 C          62.6350   89.7888   12.8072 C.ar    1  UNL1        0.1753
     25 C          63.3329   90.7346   11.8754 C.ar    1  UNL1        0.2100
     26 C          62.8653   90.8714   10.4567 C.ar    1  UNL1        0.1792
     27 C          61.6999   90.0623    9.9698 C.ar    1  UNL1        0.0361
     28 O          63.7440   91.8773    9.7740 O.3     1  UNL1       -0.4345
     29 C          64.7546   92.3622   10.7708 C.3     1  UNL1        0.4295
     30 O          64.5005   91.6560   12.0695 O.3     1  UNL1       -0.4315
     31 O          63.1026   89.6520   14.2259 O.3     1  UNL1       -0.4683
     32 C          64.2312   88.7212   14.5572 C.3     1  UNL1        0.2526
@<TRIPOS>BOND
     1    15    16    1
     2    16     9    1
     3     9    10   ar
     4    10    11   ar
     5    11     8    1
     6     1     8    1
     7     1     2    1
     8     2    21    1
     9    21    22    1
    10    22    23   ar
    11    23    24   ar
    12    24    31    1
    13    31    32    1
    14    24    25   ar
    15    25    26   ar
    16    26    27   ar
    17    26    28    1
    18    28    29    1
    19    29    30    1
    20     2     3    1
    21     3     4    1
    22     4     5    1
    23     5     6    1
    24    11    12   ar
    25    12    13   ar
    26    13    17    1
    27    17    18    1
    28    13    14   ar
    29    14    19    1
    30    19    20    1
    31    14     9   ar
    32     5     1    1
    33    27    22   ar
    34    30    25    1
    35     6     7    1
@<TRIPOS>MOLECULE
*****
 32 35 0 0 0
SMALL
GASTEIGER

@<TRIPOS>ATOM
      1 C          61.1841   86.5436    8.8276 C.3     1  UNL1        0.0634
      2 C          59.9595   87.3422    9.1632 C.3     1  UNL1        0.0393
      3 C          58.9360   87.0921    8.0954 C.3     1  UNL1        0.1452
      4 O          59.5281   86.1389    7.1000 O.3     1  UNL1       -0.3306
      5 C          60.9175   85.7999    7.5525 C.3     1  UNL1        0.2320
      6 O          61.8726   84.8790    6.8528 O.3     1  UNL1       -0.3601
      7 H          62.7024   84.8330    7.3529 H       1  UNL1        0.2129
      8 C          62.4526   86.4969    9.6269 C.3     1  UNL1        0.0317
      9 C          62.6518   84.4262   13.0066 C.ar    1  UNL1        0.1751
     10 C          62.4108   85.5540   12.0475 C.ar    1  UNL1        0.0360
     11 C          62.6936   85.3690   10.5860 C.ar    1  UNL1       -0.0158
     12 C          63.2174   84.0563   10.0837 C.ar    1  UNL1        0.0360
     13 C          63.4584   82.9285   11.0428 C.ar    1  UNL1        0.1751
     14 C          63.1756   83.1135   12.5043 C.ar    1  UNL1        0.2060
     15 C          63.4694   85.0288   15.3979 C.3     1  UNL1        0.2526
     16 O          62.3690   84.6111   14.4680 O.3     1  UNL1       -0.4683
     17 O          63.9823   81.6157   10.5405 O.3     1  UNL1       -0.4683
     18 C          63.0439   80.4645   10.3311 C.3     1  UNL1        0.2526
     19 O          63.4167   81.9856   13.4634 O.3     1  UNL1       -0.4654
     20 C          62.2725   81.1262   13.9133 C.3     1  UNL1        0.2528
     21 C          59.7883   88.2343   10.3568 C.3     1  UNL1        0.0292
     22 C          60.9421   89.0560   10.8507 C.ar    1  UNL1       -0.0159
     23 C          61.3896   88.9392   12.2775 C.ar    1  UNL1        0.0360
     24 C          62.5433   89.7608   12.7714 C.ar    1  UNL1        0.1753
     25 C          63.2495   90.6992   11.8383 C.ar    1  UNL1        0.2100
     26 C          62.8020   90.8160   10.4113 C.ar    1  UNL1        0.1792
     27 C          61.6483   89.9944    9.9175 C.ar    1  UNL1        0.0361
     28 O          63.6849   91.8185    9.7292 O.3     1  UNL1       -0.4345
     29 C          64.6781   92.3213   10.7345 C.3     1  UNL1        0.4295
     30 O          64.4090   91.6296   12.0380 O.3     1  UNL1       -0.4315
     31 O          62.9908   89.6440   14.1983 O.3     1  UNL1       -0.4683
     32 C          64.3048   88.9970   14.5216 C.3     1  UNL1        0.2526
@<TRIPOS>BOND
     1    15    16    1
     2    16     9    1
     3     9    10   ar
     4    10    11   ar
     5    11     8    1
     6     1     8    1
     7     1     2    1
     8     2    21    1
     9    21    22    1
    10    22    23   ar
    11    23    24   ar
    12    24    31    1
    13    31    32    1
    14    24    25   ar
    15    25    26   ar
    16    26    27   ar
    17    26    28    1
    18    28    29    1
    19    29    30    1
    20     2     3    1
    21     3     4    1
    22     4     5    1
    23     5     6    1
    24    11    12   ar
    25    12    13   ar
    26    13    17    1
    27    17    18    1
    28    13    14   ar
    29    14    19    1
    30    19    20    1
    31    14     9   ar
    32     5     1    1
    33    27    22   ar
    34    30    25    1
    35     6     7    1
@<TRIPOS>MOLECULE
*****
 32 35 0 0 0
SMALL
GASTEIGER

@<TRIPOS>ATOM
      1 C          61.1414   89.6930   10.6560 C.3     1  UNL1        0.0634
      2 C          61.0726   88.1959   10.5933 C.3     1  UNL1        0.0393
      3 C          59.7891   87.7634   11.2379 C.3     1  UNL1        0.1452
      4 O          59.0646   88.9932   11.6991 O.3     1  UNL1       -0.3306
      5 C          59.9004   90.1858   11.3394 C.3     1  UNL1        0.2320
      6 O          59.5556   91.6194   11.6148 O.3     1  UNL1       -0.3601
      7 H          60.2639   92.1921   11.2811 H       1  UNL1        0.2129
      8 C          62.2556   90.5473   10.1279 C.3     1  UNL1        0.0317
      9 C          64.5970   90.8121   13.3213 C.ar    1  UNL1        0.1751
     10 C          63.4852   90.3824   12.4107 C.ar    1  UNL1        0.0360
     11 C          63.3674   90.9771   11.0386 C.ar    1  UNL1       -0.0158
     12 C          64.3613   92.0014   10.5773 C.ar    1  UNL1        0.0360
     13 C          65.4730   92.4311   11.4879 C.ar    1  UNL1        0.1751
     14 C          65.5908   91.8364   12.8600 C.ar    1  UNL1        0.2060
     15 C          63.7760   90.6487   15.7809 C.3     1  UNL1        0.2526
     16 O          64.7148   90.2175   14.6934 O.3     1  UNL1       -0.4683
     17 O          66.4669   93.4555   11.0266 O.3     1  UNL1       -0.4683
     18 C          66.0713   94.8999   10.9430 C.3     1  UNL1        0.2526
     19 O          66.7026   92.2662   13.7707 O.3     1  UNL1       -0.4654
     20 C          66.5662   93.5217   14.5801 C.3     1  UNL1        0.2528
     21 C          62.1059   87.2902    9.9916 C.3     1  UNL1        0.0292
     22 C          62.6425   86.1343   10.7830 C.ar    1  UNL1       -0.0159
     23 C          63.0048   84.8546   10.0897 C.ar    1  UNL1        0.0360
     24 C          63.5413   83.6987   10.8811 C.ar    1  UNL1        0.1753
     25 C          63.7155   83.8228   12.3657 C.ar    1  UNL1        0.2100
     26 C          63.3531   85.1026   13.0591 C.ar    1  UNL1        0.1792
     27 C          62.8166   86.2585   12.2677 C.ar    1  UNL1        0.0361
     28 O          63.6314   84.9316   14.5231 O.3     1  UNL1       -0.4345
     29 C          64.1657   83.5461   14.7345 C.3     1  UNL1        0.4295
     30 O          64.2176   82.8608   13.4013 O.3     1  UNL1       -0.4315
     31 O          63.9036   82.4189   10.1877 O.3     1  UNL1       -0.4683
     32 C          63.2019   81.1441   10.5516 C.3     1  UNL1        0.2526
@<TRIPOS>BOND
     1    15    16    1
     2    16     9    1
     3     9    10   ar
     4    10    11   ar
     5    11     8    1
     6     1     8    1
     7     1     2    1
     8     2    21    1
     9    21    22    1
    10    22    23   ar
    11    23    24   ar
    12    24    31    1
    13    31    32    1
    14    24    25   ar
    15    25    26   ar
    16    26    27   ar
    17    26    28    1
    18    28    29    1
    19    29    30    1
    20     2     3    1
    21     3     4    1
    22     4     5    1
    23     5     6    1
    24    11    12   ar
    25    12    13   ar
    26    13    17    1
    27    17    18    1
    28    13    14   ar
    29    14    19    1
    30    19    20    1
    31    14     9   ar
    32     5     1    1
    33    27    22   ar
    34    30    25    1
    35     6     7    1
@<TRIPOS>MOLECULE
*****
 32 35 0 0 0
SMALL
GASTEIGER

@<TRIPOS>ATOM
      1 C          61.4071   87.9533    9.6238 C.3     1  UNL1        0.0634
      2 C          61.7641   89.2987   10.1830 C.3     1  UNL1        0.0393
      3 C          60.4912   90.0600   10.4074 C.3     1  UNL1        0.1452
      4 O          59.3476   89.1851    9.9869 O.3     1  UNL1       -0.3306
      5 C          59.9136   87.8831    9.5026 C.3     1  UNL1        0.2320
      6 O          59.1248   86.7159    8.9877 O.3     1  UNL1       -0.3601
      7 H          59.7307   86.0002    8.7399 H       1  UNL1        0.2129
      8 C          62.3739   86.8686    9.2513 C.3     1  UNL1        0.0317
      9 C          63.0172   85.0921   12.7413 C.ar    1  UNL1        0.1751
     10 C          62.6234   86.1260   11.7285 C.ar    1  UNL1        0.0360
     11 C          62.7677   85.8346   10.2641 C.ar    1  UNL1       -0.0158
     12 C          63.3059   84.5093    9.8126 C.ar    1  UNL1        0.0360
     13 C          63.6998   83.4754   10.8255 C.ar    1  UNL1        0.1751
     14 C          63.5554   83.7668   12.2898 C.ar    1  UNL1        0.2060
     15 C          64.0869   85.6829   15.0340 C.3     1  UNL1        0.2526
     16 O          62.8728   85.3835   14.2056 O.3     1  UNL1       -0.4683
     17 O          64.2380   82.1500   10.3740 O.3     1  UNL1       -0.4683
     18 C          63.3436   80.9461   10.3501 C.3     1  UNL1        0.2526
     19 O          63.9492   82.7328   13.3027 O.3     1  UNL1       -0.4654
     20 C          62.9089   81.8294   13.8956 C.3     1  UNL1        0.2528
     21 C          63.1504   89.7955   10.4677 C.3     1  UNL1        0.0292
     22 C          63.5106   90.2649   11.8462 C.ar    1  UNL1       -0.0159
     23 C          62.7915   89.7091   13.0394 C.ar    1  UNL1        0.0360
     24 C          63.1516   90.1785   14.4179 C.ar    1  UNL1        0.1753
     25 C          64.2309   91.2036   14.6030 C.ar    1  UNL1        0.2100
     26 C          64.9500   91.7594   13.4097 C.ar    1  UNL1        0.1792
     27 C          64.5899   91.2901   12.0313 C.ar    1  UNL1        0.0361
     28 O          65.9627   92.7517   13.8995 O.3     1  UNL1       -0.4345
     29 C          65.8693   92.8092   15.3955 C.3     1  UNL1        0.4295
     30 O          64.7990   91.8524   15.8303 O.3     1  UNL1       -0.4315
     31 O          62.4324   89.6227   15.6111 O.3     1  UNL1       -0.4683
     32 C          63.1855   88.8318   16.6395 C.3     1  UNL1        0.2526
@<TRIPOS>BOND
     1    15    16    1
     2    16     9    1
     3     9    10   ar
     4    10    11   ar
     5    11     8    1
     6     1     8    1
     7     1     2    1
     8     2    21    1
     9    21    22    1
    10    22    23   ar
    11    23    24   ar
    12    24    31    1
    13    31    32    1
    14    24    25   ar
    15    25    26   ar
    16    26    27   ar
    17    26    28    1
    18    28    29    1
    19    29    30    1
    20     2     3    1
    21     3     4    1
    22     4     5    1
    23     5     6    1
    24    11    12   ar
    25    12    13   ar
    26    13    17    1
    27    17    18    1
    28    13    14   ar
    29    14    19    1
    30    19    20    1
    31    14     9   ar
    32     5     1    1
    33    27    22   ar
    34    30    25    1
    35     6     7    1
@<TRIPOS>MOLECULE
*****
 32 35 0 0 0
SMALL
GASTEIGER

@<TRIPOS>ATOM
      1 C          61.1779   89.6288   10.5881 C.3     1  UNL1        0.0634
      2 C          61.0875   88.1324   10.5386 C.3     1  UNL1        0.0393
      3 C          59.7967   87.7242   11.1845 C.3     1  UNL1        0.1452
      4 O          59.0892   88.9685   11.6332 O.3     1  UNL1       -0.3306
      5 C          59.9428   90.1456   11.2646 C.3     1  UNL1        0.2320
      6 O          59.6184   91.5864   11.5266 O.3     1  UNL1       -0.3601
      7 H          60.3355   92.1458   11.1892 H       1  UNL1        0.2129
      8 C          62.3053   90.4622   10.0547 C.3     1  UNL1        0.0317
      9 C          65.3752   92.5659   11.4332 C.ar    1  UNL1        0.1751
     10 C          64.3438   92.0114   10.4958 C.ar    1  UNL1        0.0360
     11 C          63.3368   91.0166   10.9922 C.ar    1  UNL1       -0.0158
     12 C          63.3613   90.5762   12.4258 C.ar    1  UNL1        0.0360
     13 C          64.3927   91.1307   13.3631 C.ar    1  UNL1        0.1751
     14 C          65.3997   92.1255   12.8668 C.ar    1  UNL1        0.2060
     15 C          67.3850   93.1576    9.8968 C.3     1  UNL1        0.2526
     16 O          66.3822   93.5607   10.9369 O.3     1  UNL1       -0.4683
     17 O          64.4172   90.6903   14.7969 O.3     1  UNL1       -0.4683
     18 C          63.8262   89.3676   15.1854 C.3     1  UNL1        0.2526
     19 O          66.4312   92.6800   13.8043 O.3     1  UNL1       -0.4654
     20 C          67.6993   91.9202   14.0583 C.3     1  UNL1        0.2528
     21 C          62.1087   87.2065    9.9470 C.3     1  UNL1        0.0292
     22 C          62.6413   86.0614   10.7566 C.ar    1  UNL1       -0.0159
     23 C          63.0131   84.7746   10.0816 C.ar    1  UNL1        0.0360
     24 C          63.5456   83.6296   10.8912 C.ar    1  UNL1        0.1753
     25 C          63.7063   83.7715   12.3758 C.ar    1  UNL1        0.2100
     26 C          63.3345   85.0584   13.0508 C.ar    1  UNL1        0.1792
     27 C          62.8019   86.2034   12.2413 C.ar    1  UNL1        0.0361
     28 O          63.6002   84.9053   14.5191 O.3     1  UNL1       -0.4345
     29 C          64.1362   83.5238   14.7515 C.3     1  UNL1        0.4295
     30 O          64.2018   82.8231   13.4269 O.3     1  UNL1       -0.4315
     31 O          63.9174   82.3427   10.2161 O.3     1  UNL1       -0.4683
     32 C          63.2097   81.0719   10.5824 C.3     1  UNL1        0.2526
@<TRIPOS>BOND
     1    15    16    1
     2    16     9    1
     3     9    10   ar
     4    10    11   ar
     5    11     8    1
     6     1     8    1
     7     1     2    1
     8     2    21    1
     9    21    22    1
    10    22    23   ar
    11    23    24   ar
    12    24    31    1
    13    31    32    1
    14    24    25   ar
    15    25    26   ar
    16    26    27   ar
    17    26    28    1
    18    28    29    1
    19    29    30    1
    20     2     3    1
    21     3     4    1
    22     4     5    1
    23     5     6    1
    24    11    12   ar
    25    12    13   ar
    26    13    17    1
    27    17    18    1
    28    13    14   ar
    29    14    19    1
    30    19    20    1
    31    14     9   ar
    32     5     1    1
    33    27    22   ar
    34    30    25    1
    35     6     7    1
@<TRIPOS>MOLECULE
*****
 32 35 0 0 0
SMALL
GASTEIGER

@<TRIPOS>ATOM
      1 C          61.3679   88.0355    9.7097 C.3     1  UNL1        0.0634
      2 C          61.7277   89.4232   10.1512 C.3     1  UNL1        0.0393
      3 C          60.4554   90.1587   10.4515 C.3     1  UNL1        0.1452
      4 O          59.3091   89.2256   10.1957 O.3     1  UNL1       -0.3306
      5 C          59.8730   87.9134    9.7372 C.3     1  UNL1        0.2320
      6 O          59.0812   86.6933    9.3707 O.3     1  UNL1       -0.3601
      7 H          59.6863   85.9819    9.1086 H       1  UNL1        0.2129
      8 C          62.3332   86.9590    9.3108 C.3     1  UNL1        0.0317
      9 C          63.5620   83.4705   10.7499 C.ar    1  UNL1        0.1751
     10 C          63.2080   84.5578    9.7792 C.ar    1  UNL1        0.0360
     11 C          62.6872   85.8717   10.2817 C.ar    1  UNL1       -0.0158
     12 C          62.5205   86.0983   11.7551 C.ar    1  UNL1        0.0360
     13 C          62.8745   85.0110   12.7258 C.ar    1  UNL1        0.1751
     14 C          63.3952   83.6971   12.2233 C.ar    1  UNL1        0.2060
     15 C          63.2201   80.9316   10.3176 C.3     1  UNL1        0.2526
     16 O          64.0828   82.1567   10.2474 O.3     1  UNL1       -0.4683
     17 O          62.7077   85.2375   14.1993 O.3     1  UNL1       -0.4683
     18 C          63.9145   85.4179   15.0717 C.3     1  UNL1        0.2526
     19 O          63.7493   82.6098   13.1941 O.3     1  UNL1       -0.4654
     20 C          62.6669   81.7784   13.8165 C.3     1  UNL1        0.2528
     21 C          63.1162   89.9780   10.2712 C.3     1  UNL1        0.0292
     22 C          63.6741   90.3172   11.6217 C.ar    1  UNL1       -0.0159
     23 C          63.4455   89.3936   12.7812 C.ar    1  UNL1        0.0360
     24 C          64.0034   89.7328   14.1316 C.ar    1  UNL1        0.1753
     25 C          64.7900   90.9957   14.3225 C.ar    1  UNL1        0.2100
     26 C          65.0187   91.9193   13.1629 C.ar    1  UNL1        0.1792
     27 C          64.4608   91.5801   11.8125 C.ar    1  UNL1        0.0361
     28 O          65.8277   93.0844   13.6509 O.3     1  UNL1       -0.4345
     29 C          66.0989   92.8809   15.1120 C.3     1  UNL1        0.4295
     30 O          65.4576   91.5900   15.5271 O.3     1  UNL1       -0.4315
     31 O          63.7747   88.8092   15.2912 O.3     1  UNL1       -0.4683
     32 C          63.0604   89.3033   16.5141 C.3     1  UNL1        0.2526
@<TRIPOS>BOND
     1    15    16    1
     2    16     9    1
     3     9    10   ar
     4    10    11   ar
     5    11     8    1
     6     1     8    1
     7     1     2    1
     8     2    21    1
     9    21    22    1
    10    22    23   ar
    11    23    24   ar
    12    24    31    1
    13    31    32    1
    14    24    25   ar
    15    25    26   ar
    16    26    27   ar
    17    26    28    1
    18    28    29    1
    19    29    30    1
    20     2     3    1
    21     3     4    1
    22     4     5    1
    23     5     6    1
    24    11    12   ar
    25    12    13   ar
    26    13    17    1
    27    17    18    1
    28    13    14   ar
    29    14    19    1
    30    19    20    1
    31    14     9   ar
    32     5     1    1
    33    27    22   ar
    34    30    25    1
    35     6     7    1
