@<TRIPOS>MOLECULE
*****
 27 30 0 0 0
SMALL
GASTEIGER

@<TRIPOS>ATOM
      1 C          61.0796   86.0007    9.1344 C.3     1  UNL1        0.1305
      2 N          61.4121   87.2452    9.9029 N.ar    1  UNL1       -0.3238
      3 C          60.9585   88.6354    9.5689 C.ar    1  UNL1        0.0761
      4 C          61.5227   89.5674   10.5999 C.ar    1  UNL1        0.0229
      5 C          62.3251   88.7533   11.5711 C.ar    1  UNL1        0.0491
      6 C          63.1092   89.1333   12.7921 C.ar    1  UNL1        0.1335
      7 N          63.8249   88.0782   13.5823 N.ar    1  UNL1       -0.2288
      8 C          63.7566   86.6431   13.1516 C.ar    1  UNL1        0.1062
      9 C          62.9725   86.2629   11.9305 C.ar    1  UNL1        0.0885
     10 C          62.2568   87.3181   11.1404 C.ar    1  UNL1        0.0686
     11 C          62.9042   84.8277   11.4998 C.2     1  UNL1        0.2521
     12 O          63.0967   84.4679   10.0564 O.2     1  UNL1       -0.2698
     13 N          62.6434   83.7523   12.5125 N.am    1  UNL1       -0.2708
     14 C          62.4508   84.1121   13.9559 C.3     1  UNL1        0.1258
     15 C          62.1900   83.0367   14.9685 C.3     1  UNL1        0.1637
     16 O          62.1217   81.6015   14.5377 O.3     1  UNL1       -0.3501
     17 C          62.3143   81.2417   13.0943 C.3     1  UNL1        0.1637
     18 C          62.5751   82.3172   12.0817 C.3     1  UNL1        0.1258
     19 N          63.1776   90.5685   13.2229 N.pl3   1  UNL1       -0.2979
     20 H          62.3600   91.0358   13.5100 H       1  UNL1        0.1536
     21 C          64.4917   91.2918   13.2163 C.ar    1  UNL1        0.0502
     22 C          64.9211   92.0558   11.9990 C.ar    1  UNL1        0.0147
     23 C          66.2352   92.7790   11.9924 C.ar    1  UNL1        0.0021
     24 C          67.1198   92.7383   13.2032 C.ar    1  UNL1        0.0115
     25 C          66.6904   91.9743   14.4204 C.ar    1  UNL1        0.0589
     26 CL         67.5749   91.9336   15.6312 Cl      1  UNL1       -0.0822
     27 C          65.3762   91.2510   14.4271 C.ar    1  UNL1        0.0260
@<TRIPOS>BOND
     1     1     2    1
     2     2     3   ar
     3     3     4   ar
     4     4     5   ar
     5     5     6   ar
     6     6    19    1
     7    19    21    1
     8    21    22   ar
     9    22    23   ar
    10    23    24   ar
    11    24    25   ar
    12    25    26    1
    13    25    27   ar
    14     6     7   ar
    15     7     8   ar
    16     8     9   ar
    17     9    11    1
    18    11    12    2
    19    11    13   am
    20    13    14    1
    21    14    15    1
    22    15    16    1
    23    16    17    1
    24    17    18    1
    25     9    10   ar
    26    10     2   ar
    27    10     5   ar
    28    27    21   ar
    29    18    13    1
    30    19    20    1
@<TRIPOS>MOLECULE
*****
 27 30 0 0 0
SMALL
GASTEIGER

@<TRIPOS>ATOM
      1 C          65.9321   93.7238   12.4278 C.3     1  UNL1        0.1305
      2 N          64.9968   92.6710   11.9110 N.ar    1  UNL1       -0.3238
      3 C          64.4580   92.5790   10.5142 C.ar    1  UNL1        0.0761
      4 C          63.5643   91.3766   10.4403 C.ar    1  UNL1        0.0229
      5 C          63.5508   90.7254   11.7915 C.ar    1  UNL1        0.0491
      6 C          62.8468   89.5073   12.3117 C.ar    1  UNL1        0.1335
      7 N          63.0280   89.0893   13.7408 N.ar    1  UNL1       -0.2288
      8 C          63.9133   89.8892   14.6497 C.ar    1  UNL1        0.1062
      9 C          64.6174   91.1074   14.1296 C.ar    1  UNL1        0.0885
     10 C          64.4361   91.5254   12.7005 C.ar    1  UNL1        0.0686
     11 C          65.5027   91.9073   15.0386 C.2     1  UNL1        0.2521
     12 O          64.9338   92.5384   16.2748 O.2     1  UNL1       -0.2698
     13 N          66.9568   92.0762   14.7114 N.am    1  UNL1       -0.2708
     14 C          67.5257   91.4452   13.4753 C.3     1  UNL1        0.1258
     15 C          68.9798   91.6141   13.1482 C.3     1  UNL1        0.1637
     16 O          69.8650   92.4141   14.0572 O.3     1  UNL1       -0.3501
     17 C          69.2961   93.0451   15.2934 C.3     1  UNL1        0.1637
     18 C          67.8420   92.8762   15.6205 C.3     1  UNL1        0.1258
     19 N          61.9614   88.7073   11.4027 N.pl3   1  UNL1       -0.2979
     20 H          61.1369   89.1065   11.0421 H       1  UNL1        0.1536
     21 C          62.3323   87.2990   11.0432 C.ar    1  UNL1        0.0502
     22 C          62.6245   86.3012   12.1245 C.ar    1  UNL1        0.0147
     23 C          62.9954   84.8929   11.7650 C.ar    1  UNL1        0.0021
     24 C          63.0741   84.4825   10.3243 C.ar    1  UNL1        0.0115
     25 C          62.7819   85.4803    9.2432 C.ar    1  UNL1        0.0589
     26 CL         62.8606   85.0699    7.8026 Cl      1  UNL1       -0.0822
     27 C          62.4110   86.8886    9.6026 C.ar    1  UNL1        0.0260
@<TRIPOS>BOND
     1     1     2    1
     2     2     3   ar
     3     3     4   ar
     4     4     5   ar
     5     5     6   ar
     6     6    19    1
     7    19    21    1
     8    21    22   ar
     9    22    23   ar
    10    23    24   ar
    11    24    25   ar
    12    25    26    1
    13    25    27   ar
    14     6     7   ar
    15     7     8   ar
    16     8     9   ar
    17     9    11    1
    18    11    12    2
    19    11    13   am
    20    13    14    1
    21    14    15    1
    22    15    16    1
    23    16    17    1
    24    17    18    1
    25     9    10   ar
    26    10     2   ar
    27    10     5   ar
    28    27    21   ar
    29    18    13    1
    30    19    20    1
@<TRIPOS>MOLECULE
*****
 27 30 0 0 0
SMALL
GASTEIGER

@<TRIPOS>ATOM
      1 C          65.1852   83.7759   14.1681 C.3     1  UNL1        0.1305
      2 N          64.6736   85.1837   14.0883 N.ar    1  UNL1       -0.3238
      3 C          64.9649   86.2843   15.0649 C.ar    1  UNL1        0.0761
      4 C          64.2522   87.5189   14.5982 C.ar    1  UNL1        0.0229
      5 C          63.5204   87.1813   13.3330 C.ar    1  UNL1        0.0491
      6 C          62.6506   88.0015   12.4272 C.ar    1  UNL1        0.1335
      7 N          62.0412   87.3786   11.2064 N.ar    1  UNL1       -0.2288
      8 C          62.3016   85.9355   10.8913 C.ar    1  UNL1        0.1062
      9 C          63.1715   85.1151   11.7971 C.ar    1  UNL1        0.0885
     10 C          63.7809   85.7380   13.0180 C.ar    1  UNL1        0.0686
     11 C          63.4319   83.6718   11.4819 C.2     1  UNL1        0.2521
     12 O          64.2734   83.3032   10.2962 O.2     1  UNL1       -0.2698
     13 N          62.8508   82.5974   12.3525 N.am    1  UNL1       -0.2708
     14 C          62.0093   82.9661   13.5382 C.3     1  UNL1        0.1258
     15 C          61.4282   81.8916   14.4087 C.3     1  UNL1        0.1637
     16 O          61.6887   80.4484   14.0934 O.3     1  UNL1       -0.3501
     17 C          62.5302   80.0797   12.9077 C.3     1  UNL1        0.1637
     18 C          63.1113   81.1542   12.0372 C.3     1  UNL1        0.1258
     19 N          62.3901   89.4448   12.7423 N.pl3   1  UNL1       -0.2979
     20 H          61.5503   89.7086   13.1832 H       1  UNL1        0.1536
     21 C          63.4091   90.4861   12.3856 C.ar    1  UNL1        0.0502
     22 C          63.4658   91.0328   10.9899 C.ar    1  UNL1        0.0147
     23 C          64.4848   92.0741   10.6332 C.ar    1  UNL1        0.0021
     24 C          65.4472   92.5687   11.6722 C.ar    1  UNL1        0.0115
     25 C          65.3905   92.0219   13.0678 C.ar    1  UNL1        0.0589
     26 CL         66.3528   92.5164   14.1067 Cl      1  UNL1       -0.0822
     27 C          64.3715   90.9806   13.4245 C.ar    1  UNL1        0.0260
@<TRIPOS>BOND
     1     1     2    1
     2     2     3   ar
     3     3     4   ar
     4     4     5   ar
     5     5     6   ar
     6     6    19    1
     7    19    21    1
     8    21    22   ar
     9    22    23   ar
    10    23    24   ar
    11    24    25   ar
    12    25    26    1
    13    25    27   ar
    14     6     7   ar
    15     7     8   ar
    16     8     9   ar
    17     9    11    1
    18    11    12    2
    19    11    13   am
    20    13    14    1
    21    14    15    1
    22    15    16    1
    23    16    17    1
    24    17    18    1
    25     9    10   ar
    26    10     2   ar
    27    10     5   ar
    28    27    21   ar
    29    18    13    1
    30    19    20    1
@<TRIPOS>MOLECULE
*****
 27 30 0 0 0
SMALL
GASTEIGER

@<TRIPOS>ATOM
      1 C          63.5136   92.2148   12.3342 C.3     1  UNL1        0.1305
      2 N          63.2944   90.7685   12.0024 N.ar    1  UNL1       -0.3238
      3 C          62.7839   90.2306   10.6986 C.ar    1  UNL1        0.0761
      4 C          62.7212   88.7358   10.8065 C.ar    1  UNL1        0.0229
      5 C          63.1930   88.3498   12.1771 C.ar    1  UNL1        0.0491
      6 C          63.3458   87.0168   12.8476 C.ar    1  UNL1        0.1335
      7 N          63.8528   86.9400   14.2572 N.ar    1  UNL1       -0.2288
      8 C          64.2070   88.1962   14.9963 C.ar    1  UNL1        0.1062
      9 C          64.0543   89.5294   14.3258 C.ar    1  UNL1        0.0885
     10 C          63.5472   89.6061   12.9162 C.ar    1  UNL1        0.0686
     11 C          64.4086   90.7856   15.0650 C.2     1  UNL1        0.2521
     12 O          63.4740   91.3344   16.1020 O.2     1  UNL1       -0.2698
     13 N          65.6973   91.4930   14.7671 N.am    1  UNL1       -0.2708
     14 C          66.6318   90.9441   13.7300 C.3     1  UNL1        0.1258
     15 C          67.9206   91.6516   13.4322 C.3     1  UNL1        0.1637
     16 O          68.2748   92.9078   14.1714 O.3     1  UNL1       -0.3501
     17 C          67.3402   93.4566   15.2085 C.3     1  UNL1        0.1637
     18 C          66.0515   92.7492   15.5063 C.3     1  UNL1        0.1258
     19 N          62.9915   85.7605   12.1085 N.pl3   1  UNL1       -0.2979
     20 H          62.8909   85.7772   11.1293 H       1  UNL1        0.1536
     21 C          62.7904   84.4788   12.8613 C.ar    1  UNL1        0.0502
     22 C          62.5287   84.5095   14.3380 C.ar    1  UNL1        0.0147
     23 C          62.3277   83.2278   15.0909 C.ar    1  UNL1        0.0021
     24 C          62.3883   81.9153   14.3670 C.ar    1  UNL1        0.0115
     25 C          62.6500   81.8847   12.8904 C.ar    1  UNL1        0.0589
     26 CL         62.7107   80.5723   12.1666 Cl      1  UNL1       -0.0822
     27 C          62.8511   83.1664   12.1375 C.ar    1  UNL1        0.0260
@<TRIPOS>BOND
     1     1     2    1
     2     2     3   ar
     3     3     4   ar
     4     4     5   ar
     5     5     6   ar
     6     6    19    1
     7    19    21    1
     8    21    22   ar
     9    22    23   ar
    10    23    24   ar
    11    24    25   ar
    12    25    26    1
    13    25    27   ar
    14     6     7   ar
    15     7     8   ar
    16     8     9   ar
    17     9    11    1
    18    11    12    2
    19    11    13   am
    20    13    14    1
    21    14    15    1
    22    15    16    1
    23    16    17    1
    24    17    18    1
    25     9    10   ar
    26    10     2   ar
    27    10     5   ar
    28    27    21   ar
    29    18    13    1
    30    19    20    1
@<TRIPOS>MOLECULE
*****
 27 30 0 0 0
SMALL
GASTEIGER

@<TRIPOS>ATOM
      1 C          65.6703   93.6061   12.5836 C.3     1  UNL1        0.1305
      2 N          64.9718   92.3481   12.1600 N.ar    1  UNL1       -0.3238
      3 C          64.5183   92.0170   10.7691 C.ar    1  UNL1        0.0761
      4 C          63.8703   90.6645   10.8023 C.ar    1  UNL1        0.0229
      5 C          63.9234   90.1598   12.2139 C.ar    1  UNL1        0.0491
      6 C          63.4398   88.8872   12.8436 C.ar    1  UNL1        0.1335
      7 N          63.6369   88.6550   14.3123 N.ar    1  UNL1       -0.2288
      8 C          64.3176   89.6955   15.1513 C.ar    1  UNL1        0.1062
      9 C          64.8012   90.9682   14.5217 C.ar    1  UNL1        0.0885
     10 C          64.6041   91.2003   13.0529 C.ar    1  UNL1        0.0686
     11 C          65.4820   92.0086   15.3608 C.2     1  UNL1        0.2521
     12 O          64.7129   92.7357   16.4238 O.2     1  UNL1       -0.2698
     13 N          66.9316   92.3220   15.1369 N.am    1  UNL1       -0.2708
     14 C          67.7007   91.5949   14.0740 C.3     1  UNL1        0.1258
     15 C          69.1504   91.9083   13.8502 C.3     1  UNL1        0.1637
     16 O          69.8311   92.9488   14.6893 O.3     1  UNL1       -0.3501
     17 C          69.0620   93.6758   15.7523 C.3     1  UNL1        0.1637
     18 C          67.6123   93.3624   15.9761 C.3     1  UNL1        0.1258
     19 N          62.7590   87.8467   12.0045 N.pl3   1  UNL1       -0.2979
     20 H          62.9813   86.8951   12.1243 H       1  UNL1        0.1536
     21 C          61.7397   88.2560   10.9831 C.ar    1  UNL1        0.0502
     22 C          61.0065   89.5558   11.1344 C.ar    1  UNL1        0.0147
     23 C          59.9871   89.9652   10.1130 C.ar    1  UNL1        0.0021
     24 C          59.7010   89.0746    8.9402 C.ar    1  UNL1        0.0115
     25 C          60.4342   87.7749    8.7890 C.ar    1  UNL1        0.0589
     26 CL         60.1480   86.8844    7.6163 Cl      1  UNL1       -0.0822
     27 C          61.4536   87.3655    9.8105 C.ar    1  UNL1        0.0260
@<TRIPOS>BOND
     1     1     2    1
     2     2     3   ar
     3     3     4   ar
     4     4     5   ar
     5     5     6   ar
     6     6    19    1
     7    19    21    1
     8    21    22   ar
     9    22    23   ar
    10    23    24   ar
    11    24    25   ar
    12    25    26    1
    13    25    27   ar
    14     6     7   ar
    15     7     8   ar
    16     8     9   ar
    17     9    11    1
    18    11    12    2
    19    11    13   am
    20    13    14    1
    21    14    15    1
    22    15    16    1
    23    16    17    1
    24    17    18    1
    25     9    10   ar
    26    10     2   ar
    27    10     5   ar
    28    27    21   ar
    29    18    13    1
    30    19    20    1
@<TRIPOS>MOLECULE
*****
 27 30 0 0 0
SMALL
GASTEIGER

@<TRIPOS>ATOM
      1 C          63.4431   85.1674   12.9213 C.3     1  UNL1        0.1305
      2 N          63.6808   86.5383   13.4816 N.ar    1  UNL1       -0.3238
      3 C          64.3196   86.8527   14.8019 C.ar    1  UNL1        0.0761
      4 C          64.3550   88.3443   14.9563 C.ar    1  UNL1        0.0229
      5 C          63.7381   88.9518   13.7314 C.ar    1  UNL1        0.0491
      6 C          63.5019   90.3772   13.3282 C.ar    1  UNL1        0.1335
      7 N          62.8491   90.6864   12.0136 N.ar    1  UNL1       -0.2288
      8 C          62.4324   89.5703   11.1023 C.ar    1  UNL1        0.1062
      9 C          62.6685   88.1449   11.5055 C.ar    1  UNL1        0.0885
     10 C          63.3214   87.8357   12.8200 C.ar    1  UNL1        0.0686
     11 C          62.2518   87.0288   10.5940 C.2     1  UNL1        0.2521
     12 O          62.8471   85.6622   10.7611 O.2     1  UNL1       -0.2698
     13 N          61.2398   87.2794    9.5156 N.am    1  UNL1       -0.2708
     14 C          60.6445   88.6460    9.3485 C.3     1  UNL1        0.1258
     15 C          59.6325   88.8964    8.2701 C.3     1  UNL1        0.1637
     16 O          59.2158   87.7803    7.3587 O.3     1  UNL1       -0.3501
     17 C          59.8111   86.4137    7.5257 C.3     1  UNL1        0.1637
     18 C          60.8231   86.1632    8.6042 C.3     1  UNL1        0.1258
     19 N          63.9186   91.4933   14.2396 N.pl3   1  UNL1       -0.2979
     20 H          63.2367   92.0256   14.7096 H       1  UNL1        0.1536
     21 C          65.3742   91.7985   14.4348 C.ar    1  UNL1        0.0502
     22 C          65.8496   92.3896   15.7289 C.ar    1  UNL1        0.0147
     23 C          67.3052   92.6947   15.9241 C.ar    1  UNL1        0.0021
     24 C          68.2854   92.4087   14.8252 C.ar    1  UNL1        0.0115
     25 C          67.8100   91.8176   13.5312 C.ar    1  UNL1        0.0589
     26 CL         68.7902   91.5316   12.4324 Cl      1  UNL1       -0.0822
     27 C          66.3544   91.5124   13.3360 C.ar    1  UNL1        0.0260
@<TRIPOS>BOND
     1     1     2    1
     2     2     3   ar
     3     3     4   ar
     4     4     5   ar
     5     5     6   ar
     6     6    19    1
     7    19    21    1
     8    21    22   ar
     9    22    23   ar
    10    23    24   ar
    11    24    25   ar
    12    25    26    1
    13    25    27   ar
    14     6     7   ar
    15     7     8   ar
    16     8     9   ar
    17     9    11    1
    18    11    12    2
    19    11    13   am
    20    13    14    1
    21    14    15    1
    22    15    16    1
    23    16    17    1
    24    17    18    1
    25     9    10   ar
    26    10     2   ar
    27    10     5   ar
    28    27    21   ar
    29    18    13    1
    30    19    20    1
@<TRIPOS>MOLECULE
*****
 27 30 0 0 0
SMALL
GASTEIGER

@<TRIPOS>ATOM
      1 C          63.2254   86.9258   13.6567 C.3     1  UNL1        0.1305
      2 N          63.7718   88.3203   13.5743 N.ar    1  UNL1       -0.3238
      3 C          64.6104   89.0016   14.6148 C.ar    1  UNL1        0.0761
      4 C          64.9325   90.3807   14.1206 C.ar    1  UNL1        0.0229
      5 C          64.2929   90.5518   12.7746 C.ar    1  UNL1        0.0491
      6 C          64.2711   91.7026   11.8128 C.ar    1  UNL1        0.1335
      7 N          63.5319   91.5801   10.5133 N.ar    1  UNL1       -0.2288
      8 C          62.8146   90.3068   10.1757 C.ar    1  UNL1        0.1062
      9 C          62.8364   89.1559   11.1376 C.ar    1  UNL1        0.0885
     10 C          63.5756   89.2785   12.4370 C.ar    1  UNL1        0.0686
     11 C          62.1191   87.8825   10.7999 C.2     1  UNL1        0.2521
     12 O          62.4475   86.6184   11.5376 O.2     1  UNL1       -0.2698
     13 N          61.0734   87.8733    9.7245 N.am    1  UNL1       -0.2708
     14 C          60.7450   89.1374    8.9868 C.3     1  UNL1        0.1258
     15 C          59.6993   89.1280    7.9114 C.3     1  UNL1        0.1637
     16 O          58.9820   87.8546    7.5738 O.3     1  UNL1       -0.3501
     17 C          59.3104   86.5906    8.3116 C.3     1  UNL1        0.1637
     18 C          60.3561   86.5999    9.3869 C.3     1  UNL1        0.1258
     19 N          64.9884   92.9760   12.1504 N.pl3   1  UNL1       -0.2979
     20 H          64.8194   93.4229   13.0112 H       1  UNL1        0.1536
     21 C          65.9632   93.5686   11.1764 C.ar    1  UNL1        0.0502
     22 C          65.9940   95.0518   10.9546 C.ar    1  UNL1        0.0147
     23 C          66.9688   95.6443    9.9806 C.ar    1  UNL1        0.0021
     24 C          67.9129   94.7537    9.2285 C.ar    1  UNL1        0.0115
     25 C          67.8821   93.2706    9.4504 C.ar    1  UNL1        0.0589
     26 CL         68.8261   92.3800    8.6984 Cl      1  UNL1       -0.0822
     27 C          66.9073   92.6779   10.4244 C.ar    1  UNL1        0.0260
@<TRIPOS>BOND
     1     1     2    1
     2     2     3   ar
     3     3     4   ar
     4     4     5   ar
     5     5     6   ar
     6     6    19    1
     7    19    21    1
     8    21    22   ar
     9    22    23   ar
    10    23    24   ar
    11    24    25   ar
    12    25    26    1
    13    25    27   ar
    14     6     7   ar
    15     7     8   ar
    16     8     9   ar
    17     9    11    1
    18    11    12    2
    19    11    13   am
    20    13    14    1
    21    14    15    1
    22    15    16    1
    23    16    17    1
    24    17    18    1
    25     9    10   ar
    26    10     2   ar
    27    10     5   ar
    28    27    21   ar
    29    18    13    1
    30    19    20    1
@<TRIPOS>MOLECULE
*****
 27 30 0 0 0
SMALL
GASTEIGER

@<TRIPOS>ATOM
      1 C          63.6739   92.2185   12.2811 C.3     1  UNL1        0.1305
      2 N          63.4201   90.7701   11.9852 N.ar    1  UNL1       -0.3238
      3 C          62.9362   90.2082   10.6813 C.ar    1  UNL1        0.0761
      4 C          62.8227   88.7200   10.8314 C.ar    1  UNL1        0.0229
      5 C          63.2365   88.3621   12.2281 C.ar    1  UNL1        0.0491
      6 C          63.3247   87.0463   12.9428 C.ar    1  UNL1        0.1335
      7 N          63.7822   86.9975   14.3705 N.ar    1  UNL1       -0.2288
      8 C          64.1514   88.2644   15.0835 C.ar    1  UNL1        0.1062
      9 C          64.0631   89.5803   14.3688 C.ar    1  UNL1        0.0885
     10 C          63.6057   89.6291   12.9411 C.ar    1  UNL1        0.0686
     11 C          64.4324   90.8473   15.0820 C.2     1  UNL1        0.2521
     12 O          63.4985   91.4356   16.0977 O.2     1  UNL1       -0.2698
     13 N          65.7354   91.5258   14.7793 N.am    1  UNL1       -0.2708
     14 C          66.6693   90.9375   13.7636 C.3     1  UNL1        0.1258
     15 C          67.9723   91.6162   13.4610 C.3     1  UNL1        0.1637
     16 O          68.3414   92.8831   14.1741 O.3     1  UNL1       -0.3501
     17 C          67.4076   93.4714   15.1899 C.3     1  UNL1        0.1637
     18 C          66.1045   92.7928   15.4925 C.3     1  UNL1        0.1258
     19 N          62.9555   85.7793   12.2297 N.pl3   1  UNL1       -0.2979
     20 H          63.0639   84.9110   12.6810 H       1  UNL1        0.1536
     21 C          62.4213   85.8352   10.8292 C.ar    1  UNL1        0.0502
     22 C          63.2484   85.3179    9.6898 C.ar    1  UNL1        0.0147
     23 C          62.7142   85.3738    8.2893 C.ar    1  UNL1        0.0021
     24 C          61.3527   85.9470    8.0282 C.ar    1  UNL1        0.0115
     25 C          60.5257   86.4643    9.1676 C.ar    1  UNL1        0.0589
     26 CL         59.1643   87.0375    8.9066 Cl      1  UNL1       -0.0822
     27 C          61.0599   86.4084   10.5682 C.ar    1  UNL1        0.0260
@<TRIPOS>BOND
     1     1     2    1
     2     2     3   ar
     3     3     4   ar
     4     4     5   ar
     5     5     6   ar
     6     6    19    1
     7    19    21    1
     8    21    22   ar
     9    22    23   ar
    10    23    24   ar
    11    24    25   ar
    12    25    26    1
    13    25    27   ar
    14     6     7   ar
    15     7     8   ar
    16     8     9   ar
    17     9    11    1
    18    11    12    2
    19    11    13   am
    20    13    14    1
    21    14    15    1
    22    15    16    1
    23    16    17    1
    24    17    18    1
    25     9    10   ar
    26    10     2   ar
    27    10     5   ar
    28    27    21   ar
    29    18    13    1
    30    19    20    1
@<TRIPOS>MOLECULE
*****
 27 30 0 0 0
SMALL
GASTEIGER

@<TRIPOS>ATOM
      1 C          48.0879   77.4015   19.5495 C.3     1  UNL1        0.1305
      2 N          47.6018   76.0045   19.3004 N.ar    1  UNL1       -0.3238
      3 C          48.3908   74.7460   19.5092 C.ar    1  UNL1        0.0761
      4 C          47.5179   73.5844   19.1366 C.ar    1  UNL1        0.0229
      5 C          46.1894   74.1249   18.6976 C.ar    1  UNL1        0.0491
      6 C          44.9392   73.4485   18.2187 C.ar    1  UNL1        0.1335
      7 N          43.7407   74.2678   17.8411 N.ar    1  UNL1       -0.2288
      8 C          43.7925   75.7633   17.9424 C.ar    1  UNL1        0.1062
      9 C          45.0428   76.4399   18.4212 C.ar    1  UNL1        0.0885
     10 C          46.2412   75.6206   18.7989 C.ar    1  UNL1        0.0686
     11 C          45.0945   77.9356   18.5225 C.2     1  UNL1        0.2521
     12 O          45.4534   78.7567   17.3196 O.2     1  UNL1       -0.2698
     13 N          44.7874   78.6101   19.8265 N.am    1  UNL1       -0.2708
     14 C          44.4285   77.7890   21.0294 C.3     1  UNL1        0.1258
     15 C          44.1214   78.4636   22.3335 C.3     1  UNL1        0.1637
     16 O          44.1731   79.9593   22.4346 O.3     1  UNL1       -0.3501
     17 C          44.5320   80.7804   21.2317 C.3     1  UNL1        0.1637
     18 C          44.8391   80.1058   19.9277 C.3     1  UNL1        0.1258
     19 N          44.8873   71.9528   18.1175 N.pl3   1  UNL1       -0.2979
     20 H          44.8000   71.4070   18.9322 H       1  UNL1        0.1536
     21 C          44.9686   71.2887   16.7750 C.ar    1  UNL1        0.0502
     22 C          44.0532   71.7207   15.6679 C.ar    1  UNL1        0.0147
     23 C          44.1345   71.0566   14.3254 C.ar    1  UNL1        0.0021
     24 C          45.1312   69.9605   14.0899 C.ar    1  UNL1        0.0115
     25 C          46.0465   69.5286   15.1969 C.ar    1  UNL1        0.0589
     26 CL         47.0431   68.4326   14.9615 Cl      1  UNL1       -0.0822
     27 C          45.9652   70.1927   16.5395 C.ar    1  UNL1        0.0260
@<TRIPOS>BOND
     1     1     2    1
     2     2     3   ar
     3     3     4   ar
     4     4     5   ar
     5     5     6   ar
     6     6    19    1
     7    19    21    1
     8    21    22   ar
     9    22    23   ar
    10    23    24   ar
    11    24    25   ar
    12    25    26    1
    13    25    27   ar
    14     6     7   ar
    15     7     8   ar
    16     8     9   ar
    17     9    11    1
    18    11    12    2
    19    11    13   am
    20    13    14    1
    21    14    15    1
    22    15    16    1
    23    16    17    1
    24    17    18    1
    25     9    10   ar
    26    10     2   ar
    27    10     5   ar
    28    27    21   ar
    29    18    13    1
    30    19    20    1
