@<TRIPOS>MOLECULE
*****
 27 30 0 0 0
SMALL
GASTEIGER

@<TRIPOS>ATOM
      1 C          63.7325   89.0992   15.7630 C.ar    1  UNL1        0.0016
      2 C          64.4385   88.3387   14.6799 C.ar    1  UNL1        0.0005
      3 C          64.4695   86.8394   14.7141 C.ar    1  UNL1        0.0338
      4 C          63.7945   86.1005   15.8315 C.ar    1  UNL1        0.1287
      5 N          63.0885   86.8611   16.9147 N.ar    1  UNL1       -0.2297
      6 C          63.0574   88.3604   16.8804 C.ar    1  UNL1        0.0963
      7 N          63.8255   84.6013   15.8658 N.pl3   1  UNL1       -0.3144
      8 H          64.6164   84.1332   16.2188 H       1  UNL1        0.1485
      9 C          62.6515   83.8151   15.3621 C.3     1  UNL1        0.1169
     10 C          62.7621   83.0380   14.0839 C.ar    1  UNL1        0.0166
     11 C          62.4657   81.5676   14.0720 C.ar    1  UNL1        0.0014
     12 C          62.5763   80.7905   12.7938 C.ar    1  UNL1        0.0305
     13 C          62.9833   81.4837   11.5274 C.ar    1  UNL1        0.1383
     14 CL         63.0939   80.7065   10.2492 Cl      1  UNL1       -0.0613
     15 N          63.2798   82.9541   11.5393 N.ar    1  UNL1       -0.2327
     16 C          63.1692   83.7312   12.8174 C.ar    1  UNL1        0.0972
     17 C          63.7014   90.5985   15.7287 C.3     1  UNL1        0.0580
     18 CL         63.0242   91.1981    9.9001 Cl      1  UNL1       -0.0826
     19 C          63.9964   91.5953   10.9710 C.2     1  UNL1        0.0866
     20 C          65.2195   92.3882   10.6171 C.2     1  UNL1        0.2432
     21 N          66.1918   92.7853   11.6881 N.2     1  UNL1       -0.0302
     22 C          65.9409   92.3896   13.1130 C.2     1  UNL1        0.3717
     23 N          66.7150   92.6354   14.3741 N.2     1  UNL1       -0.0311
     24 C          65.9703   91.9943   15.5075 C.2     1  UNL1        0.2319
     25 C          64.7360   91.3523   14.9468 C.2     1  UNL1        0.0328
     26 C          64.7179   91.5967   13.4669 C.2     1  UNL1        0.0716
     27 C          63.7456   91.1995   12.3959 C.3     1  UNL1        0.0758
@<TRIPOS>BOND
     1    18    19    1
     2    19    20    2
     3    20    21    1
     4    21    22    2
     5    22    23    1
     6    23    24    2
     7    24    25    1
     8    25    17    1
     9    17     1    1
    10     1     2   ar
    11     2     3   ar
    12     3     4   ar
    13     4     7    1
    14     7     9    1
    15     9    10    1
    16    10    11   ar
    17    11    12   ar
    18    12    13   ar
    19    13    14    1
    20    13    15   ar
    21    15    16   ar
    22     4     5   ar
    23     5     6   ar
    24    25    26    2
    25    26    27    1
    26    27    19    1
    27    26    22    1
    28     6     1   ar
    29    16    10   ar
    30     7     8    1
@<TRIPOS>MOLECULE
*****
 27 30 0 0 0
SMALL
GASTEIGER

@<TRIPOS>ATOM
      1 C          63.3798   84.3488   14.7380 C.ar    1  UNL1        0.0016
      2 C          64.4344   85.3993   14.5537 C.ar    1  UNL1        0.0005
      3 C          64.3835   86.6629   15.3603 C.ar    1  UNL1        0.0338
      4 C          63.2779   86.8760   16.3514 C.ar    1  UNL1        0.1287
      5 N          62.2232   85.8254   16.5358 N.ar    1  UNL1       -0.2297
      6 C          62.2741   84.5618   15.7291 C.ar    1  UNL1        0.0963
      7 N          63.2270   88.1396   17.1581 N.pl3   1  UNL1       -0.3144
      8 H          63.4846   88.1278   18.1082 H       1  UNL1        0.1485
      9 C          62.7836   89.4212   16.5171 C.3     1  UNL1        0.1169
     10 C          63.7976   90.3499   15.9175 C.ar    1  UNL1        0.0166
     11 C          64.4241   90.0230   14.5944 C.ar    1  UNL1        0.0014
     12 C          65.4380   90.9516   13.9947 C.ar    1  UNL1        0.0305
     13 C          65.8254   92.2072   14.7182 C.ar    1  UNL1        0.1383
     14 CL         66.8393   93.1359   14.1186 Cl      1  UNL1       -0.0613
     15 N          65.1989   92.5341   16.0414 N.ar    1  UNL1       -0.2327
     16 C          64.1850   91.6054   16.6409 C.ar    1  UNL1        0.0972
     17 C          63.4306   83.0852   13.9314 C.3     1  UNL1        0.0580
     18 CL         60.7301   87.1656   10.6376 Cl      1  UNL1       -0.0826
     19 C          61.7170   86.0488   10.4678 C.2     1  UNL1        0.0866
     20 C          62.2847   85.7493    9.1121 C.2     1  UNL1        0.2432
     21 N          63.2716   84.6325    8.9423 N.2     1  UNL1       -0.0302
     22 C          63.6908   83.8153   10.1281 C.2     1  UNL1        0.3717
     23 N          64.6383   82.6608   10.2671 N.2     1  UNL1       -0.0311
     24 C          64.6562   82.2467   11.7087 C.2     1  UNL1        0.2319
     25 C          63.7197   83.1453   12.4607 C.2     1  UNL1        0.0328
     26 C          63.1231   84.1148   11.4838 C.2     1  UNL1        0.0716
     27 C          62.1362   85.2315   11.6537 C.3     1  UNL1        0.0758
@<TRIPOS>BOND
     1    18    19    1
     2    19    20    2
     3    20    21    1
     4    21    22    2
     5    22    23    1
     6    23    24    2
     7    24    25    1
     8    25    17    1
     9    17     1    1
    10     1     2   ar
    11     2     3   ar
    12     3     4   ar
    13     4     7    1
    14     7     9    1
    15     9    10    1
    16    10    11   ar
    17    11    12   ar
    18    12    13   ar
    19    13    14    1
    20    13    15   ar
    21    15    16   ar
    22     4     5   ar
    23     5     6   ar
    24    25    26    2
    25    26    27    1
    26    27    19    1
    27    26    22    1
    28     6     1   ar
    29    16    10   ar
    30     7     8    1
@<TRIPOS>MOLECULE
*****
 27 30 0 0 0
SMALL
GASTEIGER

@<TRIPOS>ATOM
      1 C          62.8386   84.7946   10.2409 C.ar    1  UNL1        0.0016
      2 C          63.9102   83.7574   10.4019 C.ar    1  UNL1        0.0005
      3 C          64.1988   83.1811   11.7563 C.ar    1  UNL1        0.0338
      4 C          63.4158   83.6418   12.9499 C.ar    1  UNL1        0.1287
      5 N          62.3441   84.6790   12.7889 N.ar    1  UNL1       -0.2297
      6 C          62.0555   85.2554   11.4345 C.ar    1  UNL1        0.0963
      7 N          63.7044   83.0655   14.3043 N.pl3   1  UNL1       -0.3144
      8 H          63.3777   82.1662   14.5364 H       1  UNL1        0.1485
      9 C          64.4909   83.8592   15.3050 C.3     1  UNL1        0.1169
     10 C          64.1470   85.2969   15.5591 C.ar    1  UNL1        0.0166
     11 C          64.7377   86.3731   14.6972 C.ar    1  UNL1        0.0014
     12 C          64.3938   87.8108   14.9512 C.ar    1  UNL1        0.0305
     13 C          63.4591   88.1725   16.0672 C.ar    1  UNL1        0.1383
     14 CL         63.1151   89.6103   16.3213 Cl      1  UNL1       -0.0613
     15 N          62.8683   87.0963   16.9292 N.ar    1  UNL1       -0.2327
     16 C          63.2122   85.6586   16.6751 C.ar    1  UNL1        0.0972
     17 C          62.5499   85.3709    8.8865 C.3     1  UNL1        0.0580
     18 CL         63.0598   90.4525   11.8377 Cl      1  UNL1       -0.0826
     19 C          62.1141   89.7938   10.8776 C.2     1  UNL1        0.0866
     20 C          60.8745   90.5125   10.4338 C.2     1  UNL1        0.2432
     21 N          59.9288   89.8538    9.4738 N.2     1  UNL1       -0.0302
     22 C          60.2226   88.4764    8.9575 C.2     1  UNL1        0.3717
     23 N          59.4816   87.5805    8.0098 N.2     1  UNL1       -0.0311
     24 C          60.2632   86.3081    7.8678 C.2     1  UNL1        0.2319
     25 C          61.4873   86.4177    8.7278 C.2     1  UNL1        0.0328
     26 C          61.4622   87.7578    9.4013 C.2     1  UNL1        0.0716
     27 C          62.4079   88.4165   10.3614 C.3     1  UNL1        0.0758
@<TRIPOS>BOND
     1    18    19    1
     2    19    20    2
     3    20    21    1
     4    21    22    2
     5    22    23    1
     6    23    24    2
     7    24    25    1
     8    25    17    1
     9    17     1    1
    10     1     2   ar
    11     2     3   ar
    12     3     4   ar
    13     4     7    1
    14     7     9    1
    15     9    10    1
    16    10    11   ar
    17    11    12   ar
    18    12    13   ar
    19    13    14    1
    20    13    15   ar
    21    15    16   ar
    22     4     5   ar
    23     5     6   ar
    24    25    26    2
    25    26    27    1
    26    27    19    1
    27    26    22    1
    28     6     1   ar
    29    16    10   ar
    30     7     8    1
@<TRIPOS>MOLECULE
*****
 27 30 0 0 0
SMALL
GASTEIGER

@<TRIPOS>ATOM
      1 C          62.3370   88.4367   11.2063 C.ar    1  UNL1        0.0016
      2 C          62.3271   89.7053   10.4060 C.ar    1  UNL1        0.0005
      3 C          63.0892   90.9033   10.8898 C.ar    1  UNL1        0.0338
      4 C          63.8612   90.8327   12.1739 C.ar    1  UNL1        0.1287
      5 N          63.8711   89.5640   12.9742 N.ar    1  UNL1       -0.2297
      6 C          63.1090   88.3660   12.4905 C.ar    1  UNL1        0.0963
      7 N          64.6233   92.0307   12.6577 N.pl3   1  UNL1       -0.3144
      8 H          64.1750   92.7072   13.2149 H       1  UNL1        0.1485
      9 C          66.0685   92.1979   12.2923 C.3     1  UNL1        0.1169
     10 C          66.4770   93.2603   11.3154 C.ar    1  UNL1        0.0166
     11 C          67.2022   92.8838   10.0576 C.ar    1  UNL1        0.0014
     12 C          67.6107   93.9462    9.0807 C.ar    1  UNL1        0.0305
     13 C          67.2941   95.3852    9.3616 C.ar    1  UNL1        0.1383
     14 CL         67.7027   96.4476    8.3847 Cl      1  UNL1       -0.0613
     15 N          66.5689   95.7617   10.6196 N.ar    1  UNL1       -0.2327
     16 C          66.1604   94.6993   11.5964 C.ar    1  UNL1        0.0972
     17 C          61.5749   87.2387   10.7225 C.3     1  UNL1        0.0580
     18 CL         63.8620   83.1251   14.2777 Cl      1  UNL1       -0.0826
     19 C          63.7626   83.4216   12.8107 C.2     1  UNL1        0.0866
     20 C          64.3799   82.4870   11.8131 C.2     1  UNL1        0.2432
     21 N          64.2805   82.7835   10.3460 N.2     1  UNL1       -0.0302
     22 C          63.5638   84.0147    9.8766 C.2     1  UNL1        0.3717
     23 N          63.3065   84.5648    8.5051 N.2     1  UNL1       -0.0311
     24 C          62.5301   85.8395    8.6550 C.2     1  UNL1        0.2319
     25 C          62.3076   86.0772   10.1192 C.2     1  UNL1        0.0328
     26 C          62.9465   84.9494   10.8742 C.2     1  UNL1        0.0716
     27 C          63.0459   84.6528   12.3412 C.3     1  UNL1        0.0758
@<TRIPOS>BOND
     1    18    19    1
     2    19    20    2
     3    20    21    1
     4    21    22    2
     5    22    23    1
     6    23    24    2
     7    24    25    1
     8    25    17    1
     9    17     1    1
    10     1     2   ar
    11     2     3   ar
    12     3     4   ar
    13     4     7    1
    14     7     9    1
    15     9    10    1
    16    10    11   ar
    17    11    12   ar
    18    12    13   ar
    19    13    14    1
    20    13    15   ar
    21    15    16   ar
    22     4     5   ar
    23     5     6   ar
    24    25    26    2
    25    26    27    1
    26    27    19    1
    27    26    22    1
    28     6     1   ar
    29    16    10   ar
    30     7     8    1
@<TRIPOS>MOLECULE
*****
 27 30 0 0 0
SMALL
GASTEIGER

@<TRIPOS>ATOM
      1 C          63.3817   88.9494   13.0475 C.ar    1  UNL1        0.0016
      2 C          64.1731   88.9546   14.3216 C.ar    1  UNL1        0.0005
      3 C          64.6189   87.6594   14.9330 C.ar    1  UNL1        0.0338
      4 C          64.2733   86.3590   14.2701 C.ar    1  UNL1        0.1287
      5 N          63.4818   86.3538   12.9959 N.ar    1  UNL1       -0.2297
      6 C          63.0360   87.6490   12.3845 C.ar    1  UNL1        0.0963
      7 N          64.7191   85.0638   14.8815 N.pl3   1  UNL1       -0.3144
      8 H          65.6323   84.9767   15.2389 H       1  UNL1        0.1485
      9 C          63.7735   83.9013   14.9483 C.3     1  UNL1        0.1169
     10 C          63.5866   83.0168   13.7513 C.ar    1  UNL1        0.0166
     11 C          62.4952   81.9880   13.7421 C.ar    1  UNL1        0.0014
     12 C          62.3083   81.1035   12.5451 C.ar    1  UNL1        0.0305
     13 C          63.2128   81.2479   11.3573 C.ar    1  UNL1        0.1383
     14 CL         63.0259   80.3634   10.1603 Cl      1  UNL1       -0.0613
     15 N          64.3043   82.2768   11.3665 N.ar    1  UNL1       -0.2327
     16 C          64.4912   83.1612   12.5635 C.ar    1  UNL1        0.0972
     17 C          62.9358   90.2446   12.4361 C.3     1  UNL1        0.0580
     18 CL         66.5355   92.6424   16.4467 Cl      1  UNL1       -0.0826
     19 C          66.2765   92.7203   14.9713 C.2     1  UNL1        0.0866
     20 C          67.0952   93.6390   14.1136 C.2     1  UNL1        0.2432
     21 N          66.8362   93.7169   12.6382 N.2     1  UNL1       -0.0302
     22 C          65.7586   92.8761   12.0204 C.2     1  UNL1        0.3717
     23 N          65.2776   92.7411   10.6061 N.2     1  UNL1       -0.0311
     24 C          64.1617   91.7388   10.5896 C.2     1  UNL1        0.2319
     25 C          63.9529   91.2545   11.9938 C.2     1  UNL1        0.0328
     26 C          64.9399   91.9574   12.8781 C.2     1  UNL1        0.0716
     27 C          65.1989   91.8795   14.3535 C.3     1  UNL1        0.0758
@<TRIPOS>BOND
     1    18    19    1
     2    19    20    2
     3    20    21    1
     4    21    22    2
     5    22    23    1
     6    23    24    2
     7    24    25    1
     8    25    17    1
     9    17     1    1
    10     1     2   ar
    11     2     3   ar
    12     3     4   ar
    13     4     7    1
    14     7     9    1
    15     9    10    1
    16    10    11   ar
    17    11    12   ar
    18    12    13   ar
    19    13    14    1
    20    13    15   ar
    21    15    16   ar
    22     4     5   ar
    23     5     6   ar
    24    25    26    2
    25    26    27    1
    26    27    19    1
    27    26    22    1
    28     6     1   ar
    29    16    10   ar
    30     7     8    1
@<TRIPOS>MOLECULE
*****
 27 30 0 0 0
SMALL
GASTEIGER

@<TRIPOS>ATOM
      1 C          63.6505   88.1382   13.2919 C.ar    1  UNL1        0.0016
      2 C          64.3804   87.7942   14.5564 C.ar    1  UNL1        0.0005
      3 C          64.5328   86.3598   14.9679 C.ar    1  UNL1        0.0338
      4 C          63.9552   85.2694   14.1150 C.ar    1  UNL1        0.1287
      5 N          63.2253   85.6135   12.8504 N.ar    1  UNL1       -0.2297
      6 C          63.0730   87.0479   12.4389 C.ar    1  UNL1        0.0963
      7 N          64.1076   83.8351   14.5265 N.pl3   1  UNL1       -0.3144
      8 H          64.9537   83.5236   14.9219 H       1  UNL1        0.1485
      9 C          62.9708   82.8752   14.3356 C.3     1  UNL1        0.1169
     10 C          62.9488   81.9666   13.1423 C.ar    1  UNL1        0.0166
     11 C          63.2863   82.5048   11.7835 C.ar    1  UNL1        0.0014
     12 C          63.2643   81.5961   10.5902 C.ar    1  UNL1        0.0305
     13 C          62.9048   80.1493   10.7557 C.ar    1  UNL1        0.1383
     14 CL         62.8828   79.2406    9.5625 Cl      1  UNL1       -0.0613
     15 N          62.5674   79.6111   12.1147 N.ar    1  UNL1       -0.2327
     16 C          62.5894   80.5198   13.3078 C.ar    1  UNL1        0.0972
     17 C          63.4982   89.5726   12.8804 C.3     1  UNL1        0.0580
     18 CL         66.1575   93.9075    9.8924 Cl      1  UNL1       -0.0826
     19 C          65.9392   93.4851   11.3150 C.2     1  UNL1        0.0866
     20 C          66.5038   94.3060   12.4362 C.2     1  UNL1        0.2432
     21 N          66.2855   93.8835   13.8588 N.2     1  UNL1       -0.0302
     22 C          65.5027   92.6401   14.1603 C.2     1  UNL1        0.3717
     23 N          65.1274   91.9790   15.4533 N.2     1  UNL1       -0.0311
     24 C          64.3308   90.7495   15.1313 C.2     1  UNL1        0.2319
     25 C          64.2138   90.6506   13.6392 C.2     1  UNL1        0.0328
     26 C          64.9380   91.8191   13.0390 C.2     1  UNL1        0.0716
     27 C          65.1563   92.2416   11.6164 C.3     1  UNL1        0.0758
@<TRIPOS>BOND
     1    18    19    1
     2    19    20    2
     3    20    21    1
     4    21    22    2
     5    22    23    1
     6    23    24    2
     7    24    25    1
     8    25    17    1
     9    17     1    1
    10     1     2   ar
    11     2     3   ar
    12     3     4   ar
    13     4     7    1
    14     7     9    1
    15     9    10    1
    16    10    11   ar
    17    11    12   ar
    18    12    13   ar
    19    13    14    1
    20    13    15   ar
    21    15    16   ar
    22     4     5   ar
    23     5     6   ar
    24    25    26    2
    25    26    27    1
    26    27    19    1
    27    26    22    1
    28     6     1   ar
    29    16    10   ar
    30     7     8    1
@<TRIPOS>MOLECULE
*****
 27 30 0 0 0
SMALL
GASTEIGER

@<TRIPOS>ATOM
      1 C          63.3206   90.6093   11.1501 C.ar    1  UNL1        0.0016
      2 C          63.6089   89.7132   12.3178 C.ar    1  UNL1        0.0005
      3 C          63.0493   88.3219   12.3518 C.ar    1  UNL1        0.0338
      4 C          62.2012   87.8268   11.2179 C.ar    1  UNL1        0.1287
      5 N          61.9129   88.7230   10.0501 N.ar    1  UNL1       -0.2297
      6 C          62.4725   90.1142   10.0161 C.ar    1  UNL1        0.0963
      7 N          61.6415   86.4355   11.2518 N.pl3   1  UNL1       -0.3144
      8 H          60.7396   86.2764   11.6130 H       1  UNL1        0.1485
      9 C          62.4561   85.2866   10.7355 C.3     1  UNL1        0.1169
     10 C          62.6337   84.0562   11.5748 C.ar    1  UNL1        0.0166
     11 C          62.8774   82.7295   10.9188 C.ar    1  UNL1        0.0014
     12 C          63.0550   81.4991   11.7581 C.ar    1  UNL1        0.0305
     13 C          62.9889   81.5953   13.2535 C.ar    1  UNL1        0.1383
     14 CL         63.1665   80.3648   14.0928 Cl      1  UNL1       -0.0613
     15 N          62.7452   82.9220   13.9096 N.ar    1  UNL1       -0.2327
     16 C          62.5676   84.1524   13.0703 C.ar    1  UNL1        0.0972
     17 C          63.8802   92.0006   11.1161 C.3     1  UNL1        0.0580
     18 CL         65.2570   92.2915   16.8443 Cl      1  UNL1       -0.0826
     19 C          65.9388   92.3931   15.5121 C.2     1  UNL1        0.0866
     20 C          67.4164   92.6419   15.4428 C.2     1  UNL1        0.2432
     21 N          68.0983   92.7435   14.1106 N.2     1  UNL1       -0.0302
     22 C          67.3026   92.5962   12.8477 C.2     1  UNL1        0.3717
     23 N          67.6966   92.6480   11.4013 N.2     1  UNL1       -0.0311
     24 C          66.4626   92.4312   10.5766 C.2     1  UNL1        0.2319
     25 C          65.3058   92.2454   11.5133 C.2     1  UNL1        0.0328
     26 C          65.8250   92.3474   12.9169 C.2     1  UNL1        0.0716
     27 C          65.1431   92.2458   14.2491 C.3     1  UNL1        0.0758
@<TRIPOS>BOND
     1    18    19    1
     2    19    20    2
     3    20    21    1
     4    21    22    2
     5    22    23    1
     6    23    24    2
     7    24    25    1
     8    25    17    1
     9    17     1    1
    10     1     2   ar
    11     2     3   ar
    12     3     4   ar
    13     4     7    1
    14     7     9    1
    15     9    10    1
    16    10    11   ar
    17    11    12   ar
    18    12    13   ar
    19    13    14    1
    20    13    15   ar
    21    15    16   ar
    22     4     5   ar
    23     5     6   ar
    24    25    26    2
    25    26    27    1
    26    27    19    1
    27    26    22    1
    28     6     1   ar
    29    16    10   ar
    30     7     8    1
@<TRIPOS>MOLECULE
*****
 27 30 0 0 0
SMALL
GASTEIGER

@<TRIPOS>ATOM
      1 C          63.4283   88.4155   12.7130 C.ar    1  UNL1        0.0016
      2 C          64.1413   88.6794   14.0060 C.ar    1  UNL1        0.0005
      3 C          64.4335   87.5475   14.9460 C.ar    1  UNL1        0.0338
      4 C          64.0127   86.1517   14.5929 C.ar    1  UNL1        0.1287
      5 N          63.2997   85.8879   13.2998 N.ar    1  UNL1       -0.2297
      6 C          63.0075   87.0197   12.3598 C.ar    1  UNL1        0.0963
      7 N          64.3049   85.0199   15.5328 N.pl3   1  UNL1       -0.3144
      8 H          65.1388   85.0174   16.0562 H       1  UNL1        0.1485
      9 C          63.3267   83.8917   15.6753 C.3     1  UNL1        0.1169
     10 C          63.1867   82.8775   14.5791 C.ar    1  UNL1        0.0166
     11 C          61.9517   82.0305   14.4941 C.ar    1  UNL1        0.0014
     12 C          61.8117   81.0162   13.3979 C.ar    1  UNL1        0.0305
     13 C          62.9068   80.8489   12.3866 C.ar    1  UNL1        0.1383
     14 CL         62.7669   79.8346   11.2904 Cl      1  UNL1       -0.0613
     15 N          64.1419   81.6959   12.4717 N.ar    1  UNL1       -0.2327
     16 C          64.2818   82.7101   13.5678 C.ar    1  UNL1        0.0972
     17 C          63.1361   89.5474   11.7730 C.3     1  UNL1        0.0580
     18 CL         62.2691   85.2050    7.8764 Cl      1  UNL1       -0.0826
     19 C          61.5679   86.4352    8.3714 C.2     1  UNL1        0.0866
     20 C          60.2321   86.8161    7.8053 C.2     1  UNL1        0.2432
     21 N          59.5309   88.0463    8.3003 N.2     1  UNL1       -0.0302
     22 C          60.1655   88.8955    9.3614 C.2     1  UNL1        0.3717
     23 N          59.7162   90.1550   10.0409 N.2     1  UNL1       -0.0311
     24 C          60.7743   90.5525   11.0271 C.2     1  UNL1        0.2319
     25 C          61.8776   89.5387   10.9570 C.2     1  UNL1        0.0328
     26 C          61.5013   88.5146    9.9275 C.2     1  UNL1        0.0716
     27 C          62.2025   87.2844    9.4325 C.3     1  UNL1        0.0758
@<TRIPOS>BOND
     1    18    19    1
     2    19    20    2
     3    20    21    1
     4    21    22    2
     5    22    23    1
     6    23    24    2
     7    24    25    1
     8    25    17    1
     9    17     1    1
    10     1     2   ar
    11     2     3   ar
    12     3     4   ar
    13     4     7    1
    14     7     9    1
    15     9    10    1
    16    10    11   ar
    17    11    12   ar
    18    12    13   ar
    19    13    14    1
    20    13    15   ar
    21    15    16   ar
    22     4     5   ar
    23     5     6   ar
    24    25    26    2
    25    26    27    1
    26    27    19    1
    27    26    22    1
    28     6     1   ar
    29    16    10   ar
    30     7     8    1
@<TRIPOS>MOLECULE
*****
 27 30 0 0 0
SMALL
GASTEIGER

@<TRIPOS>ATOM
      1 C          60.5575   87.3167    9.5341 C.ar    1  UNL1        0.0016
      2 C          60.7996   88.7831    9.3319 C.ar    1  UNL1        0.0005
      3 C          60.1739   89.4931    8.1681 C.ar    1  UNL1        0.0338
      4 C          59.3062   88.7366    7.2064 C.ar    1  UNL1        0.1287
      5 N          59.0642   87.2701    7.4087 N.ar    1  UNL1       -0.2297
      6 C          59.6898   86.5601    8.5725 C.ar    1  UNL1        0.0963
      7 N          58.6806   89.4467    6.0426 N.pl3   1  UNL1       -0.3144
      8 H          58.1616   88.9391    5.3776 H       1  UNL1        0.1485
      9 C          58.8457   90.9299    5.8921 C.3     1  UNL1        0.1169
     10 C          59.7348   91.4803    4.8167 C.ar    1  UNL1        0.0166
     11 C          59.1822   92.4395    3.8046 C.ar    1  UNL1        0.0014
     12 C          60.0713   92.9898    2.7291 C.ar    1  UNL1        0.0305
     13 C          61.5131   92.5809    2.6658 C.ar    1  UNL1        0.1383
     14 CL         62.4022   93.1313    1.5903 Cl      1  UNL1       -0.0613
     15 N          62.0657   91.6217    3.6780 N.ar    1  UNL1       -0.2327
     16 C          61.1766   91.0714    4.7533 C.ar    1  UNL1        0.0972
     17 C          61.1832   86.6066   10.6979 C.3     1  UNL1        0.0580
     18 CL         62.8604   83.2191   15.2260 Cl      1  UNL1       -0.0826
     19 C          63.1327   83.3578   13.7574 C.2     1  UNL1        0.0866
     20 C          64.1001   82.4307   13.0832 C.2     1  UNL1        0.2432
     21 N          64.3723   82.5693   11.6146 N.2     1  UNL1       -0.0302
     22 C          63.6772   83.6351   10.8203 C.2     1  UNL1        0.3717
     23 N          63.7440   84.0099    9.3694 N.2     1  UNL1       -0.0311
     24 C          62.8178   85.1687    9.1470 C.2     1  UNL1        0.2319
     25 C          62.1787   85.5100   10.4604 C.2     1  UNL1        0.0328
     26 C          62.7099   84.5621   11.4945 C.2     1  UNL1        0.0716
     27 C          62.4376   84.4235   12.9631 C.3     1  UNL1        0.0758
@<TRIPOS>BOND
     1    18    19    1
     2    19    20    2
     3    20    21    1
     4    21    22    2
     5    22    23    1
     6    23    24    2
     7    24    25    1
     8    25    17    1
     9    17     1    1
    10     1     2   ar
    11     2     3   ar
    12     3     4   ar
    13     4     7    1
    14     7     9    1
    15     9    10    1
    16    10    11   ar
    17    11    12   ar
    18    12    13   ar
    19    13    14    1
    20    13    15   ar
    21    15    16   ar
    22     4     5   ar
    23     5     6   ar
    24    25    26    2
    25    26    27    1
    26    27    19    1
    27    26    22    1
    28     6     1   ar
    29    16    10   ar
    30     7     8    1
