@<TRIPOS>MOLECULE
*****
 57 62 0 0 0
SMALL
GASTEIGER

@<TRIPOS>ATOM
      1 C          59.6884   89.2797   10.4266 C.2     1  UNL1        0.3354
      2 O          60.2276   90.5426    9.8230 O.2     1  UNL1       -0.2483
      3 C          59.5130   89.1740   11.9125 C.3     1  UNL1        0.1746
      4 C          58.1586   88.8857   12.4892 C.3     1  UNL1        0.0314
      5 C          57.9833   88.7800   13.9753 C.3     1  UNL1        0.0040
      6 C          59.1623   88.9626   14.8844 C.3     1  UNL1        0.0216
      7 C          60.5166   89.2509   14.3077 C.3     1  UNL1        0.0939
      8 N          60.6920   89.3566   12.8218 N.am    1  UNL1       -0.2712
      9 C          62.0463   89.6450   12.2450 C.2     1  UNL1        0.2296
     10 O          62.2216   89.7507   10.7590 O.2     1  UNL1       -0.2745
     11 C          63.2253   89.8276   13.1542 C.3     1  UNL1        0.0991
     12 C          63.4695   88.8556   14.2702 C.3     1  UNL1        0.0127
     13 C          64.0972   87.5242   13.9812 C.3     1  UNL1        0.0008
     14 C          64.3414   86.5521   15.0972 C.3     1  UNL1        0.0000
     15 C          63.9579   86.9114   16.5022 C.3     1  UNL1        0.0000
     16 C          63.3302   88.2428   16.7911 C.3     1  UNL1        0.0000
     17 C          63.0860   89.2148   15.6751 C.3     1  UNL1        0.0008
     18 C          64.1601   90.9824   12.9474 C.ar    1  UNL1       -0.0076
     19 C          64.3611   91.5477   11.5726 C.ar    1  UNL1        0.0365
     20 C          65.2959   92.7024   11.3658 C.ar    1  UNL1        0.1751
     21 C          66.0297   93.2918   12.5337 C.ar    1  UNL1        0.2060
     22 C          65.8287   92.7264   13.9085 C.ar    1  UNL1        0.1751
     23 C          64.8939   91.5717   14.1153 C.ar    1  UNL1        0.0365
     24 O          65.4968   93.2677    9.9910 O.3     1  UNL1       -0.4683
     25 C          66.8842   93.4545    9.4523 C.3     1  UNL1        0.2526
     26 O          66.9645   94.4465   12.3269 O.3     1  UNL1       -0.4654
     27 C          66.4160   95.8215   12.0851 C.3     1  UNL1        0.2528
     28 O          66.5626   93.3159   15.0765 O.3     1  UNL1       -0.4683
     29 C          67.9927   92.9411   15.3302 C.3     1  UNL1        0.2526
     30 O          59.3245   88.1226    9.5442 O.3     1  UNL1       -0.4465
     31 C          60.2911   87.6397    8.5038 C.3     1  UNL1        0.1916
     32 C          61.3047   86.5899    8.8513 C.ar    1  UNL1        0.0203
     33 C          61.9557   85.7870    7.7644 C.ar    1  UNL1       -0.0006
     34 C          62.9692   84.7372    8.1120 C.ar    1  UNL1        0.0029
     35 C          63.3318   84.4905    9.5464 C.ar    1  UNL1        0.0369
     36 C          62.6807   85.2935   10.6334 C.ar    1  UNL1        0.1403
     37 C          61.6672   86.3432   10.2858 C.ar    1  UNL1        0.0361
     38 O          63.0432   85.0468   12.0678 O.3     1  UNL1       -0.4582
     39 C          63.8410   83.8327   12.4416 C.3     1  UNL1        0.2847
     40 N          63.1400   82.5590   12.8107 N.3     1  UNL1       -0.2308
     41 C          62.2245   82.5238   13.9984 C.3     1  UNL1        0.1075
     42 C          61.5235   81.2501   14.3675 C.3     1  UNL1        0.1596
     43 O          61.7379   80.0116   13.5489 O.3     1  UNL1       -0.3508
     44 C          62.6534   80.0468   12.3612 C.3     1  UNL1        0.1596
     45 C          63.3545   81.3205   11.9921 C.3     1  UNL1        0.1075
     46 C          60.2442   88.2066    7.1158 C.3     1  UNL1        0.0530
     47 C          59.0790   89.0491    6.6888 C.3     1  UNL1        0.0305
     48 C          59.7115   92.5036    3.8752 C.ar    1  UNL1        0.1724
     49 C          58.3458   92.2301    4.4319 C.ar    1  UNL1        0.0397
     50 C          58.1349   91.0786    5.3698 C.ar    1  UNL1       -0.0009
     51 C          59.2898   90.2006    5.7509 C.ar    1  UNL1       -0.0188
     52 C          60.6555   90.4741    5.1942 C.ar    1  UNL1        0.0358
     53 C          60.8664   91.6256    4.2563 C.ar    1  UNL1        0.1721
     54 C          59.9138   93.4263    1.4550 C.3     1  UNL1        0.2526
     55 O          59.9223   93.6551    2.9373 O.3     1  UNL1       -0.4684
     56 O          62.2322   91.8991    3.6996 O.3     1  UNL1       -0.4684
     57 C          63.1201   90.7591    3.2972 C.3     1  UNL1        0.2526
@<TRIPOS>BOND
     1    54    55    1
     2    55    48    1
     3    48    49   ar
     4    49    50   ar
     5    50    51   ar
     6    51    47    1
     7    47    46    1
     8    31    46    1
     9    31    30    1
    10    30     1    1
    11     1     2    2
    12     3     1    1
    13     3     4    1
    14     4     5    1
    15     5     6    1
    16     6     7    1
    17     7     8    1
    18     8     9   am
    19     9    10    2
    20     9    11    1
    21    11    18    1
    22    18    19   ar
    23    19    20   ar
    24    20    24    1
    25    24    25    1
    26    20    21   ar
    27    21    26    1
    28    26    27    1
    29    21    22   ar
    30    22    28    1
    31    28    29    1
    32    22    23   ar
    33    11    12    1
    34    12    13    1
    35    13    14    1
    36    14    15    1
    37    15    16    1
    38    16    17    1
    39    31    32    1
    40    32    33   ar
    41    33    34   ar
    42    34    35   ar
    43    35    36   ar
    44    36    38    1
    45    38    39    1
    46    39    40    1
    47    40    41    1
    48    41    42    1
    49    42    43    1
    50    43    44    1
    51    44    45    1
    52    36    37   ar
    53    51    52   ar
    54    52    53   ar
    55    53    56    1
    56    56    57    1
    57    53    48   ar
    58     8     3    1
    59    23    18   ar
    60    17    12    1
    61    37    32   ar
    62    45    40    1
@<TRIPOS>MOLECULE
*****
 57 62 0 0 0
SMALL
GASTEIGER

@<TRIPOS>ATOM
      1 C          61.8158   90.4392    9.8629 C.2     1  UNL1        0.3354
      2 O          62.6810   91.6621    9.7864 O.2     1  UNL1       -0.2483
      3 C          61.1325   90.0833   11.1498 C.3     1  UNL1        0.1746
      4 C          59.6643   89.7762   11.1595 C.3     1  UNL1        0.0314
      5 C          58.9809   89.4203   12.4465 C.3     1  UNL1        0.0040
      6 C          59.7658   89.3715   13.7239 C.3     1  UNL1        0.0216
      7 C          61.2340   89.6785   13.7142 C.3     1  UNL1        0.0939
      8 N          61.9173   90.0344   12.4272 N.am    1  UNL1       -0.2712
      9 C          63.3855   90.3415   12.4176 C.2     1  UNL1        0.2296
     10 O          64.0689   90.6975   11.1305 O.2     1  UNL1       -0.2745
     11 C          64.1704   90.2927   13.6949 C.3     1  UNL1        0.0991
     12 C          63.9419   89.1791   14.6735 C.3     1  UNL1        0.0127
     13 C          63.2748   89.4603   15.9873 C.3     1  UNL1        0.0008
     14 C          63.0463   88.3467   16.9659 C.3     1  UNL1        0.0000
     15 C          63.4848   86.9519   16.6307 C.3     1  UNL1        0.0000
     16 C          64.1519   86.6708   15.3170 C.3     1  UNL1        0.0000
     17 C          64.3804   87.7844   14.3384 C.3     1  UNL1        0.0008
     18 C          65.1838   91.3575   13.9937 C.ar    1  UNL1       -0.0076
     19 C          66.0058   91.2804   15.2460 C.ar    1  UNL1        0.0365
     20 C          67.0192   92.3451   15.5448 C.ar    1  UNL1        0.1751
     21 C          67.2106   93.4870   14.5912 C.ar    1  UNL1        0.2060
     22 C          66.3887   93.5642   13.3388 C.ar    1  UNL1        0.1751
     23 C          65.3753   92.4994   13.0401 C.ar    1  UNL1        0.0365
     24 O          67.8411   92.2680   16.7972 O.3     1  UNL1       -0.4683
     25 C          69.1670   91.5667   16.7821 C.3     1  UNL1        0.2526
     26 O          68.2241   94.5518   14.8900 O.3     1  UNL1       -0.4654
     27 C          69.1494   94.3993   16.0606 C.3     1  UNL1        0.2528
     28 O          66.5802   94.7061   12.3852 O.3     1  UNL1       -0.4683
     29 C          65.9730   94.6487   11.0148 C.3     1  UNL1        0.2526
     30 O          61.6340   89.5722    8.6524 O.3     1  UNL1       -0.4465
     31 C          60.8831   88.2784    8.7625 C.3     1  UNL1        0.1916
     32 C          61.5822   87.0448    9.2521 C.ar    1  UNL1        0.0203
     33 C          62.2531   86.1253    8.2752 C.ar    1  UNL1       -0.0006
     34 C          62.9522   84.8917    8.7648 C.ar    1  UNL1        0.0029
     35 C          62.9802   84.5776   10.2313 C.ar    1  UNL1        0.0369
     36 C          62.3092   85.4972   11.2082 C.ar    1  UNL1        0.1403
     37 C          61.6102   86.7307   10.7186 C.ar    1  UNL1        0.0361
     38 O          62.3373   85.1832   12.6747 O.3     1  UNL1       -0.4582
     39 C          63.2533   84.1156   13.1957 C.3     1  UNL1        0.2847
     40 N          62.7930   82.6887   13.2404 N.3     1  UNL1       -0.2308
     41 C          61.8282   82.2447   14.2997 C.3     1  UNL1        0.1075
     42 C          61.3679   80.8177   14.3444 C.3     1  UNL1        0.1596
     43 O          61.8723   79.8348   13.3298 O.3     1  UNL1       -0.3508
     44 C          62.8371   80.2788   12.2705 C.3     1  UNL1        0.1596
     45 C          63.2974   81.7057   12.2257 C.3     1  UNL1        0.1075
     46 C          59.4331   88.2181    8.3830 C.3     1  UNL1        0.0530
     47 C          59.0349   88.2360    6.9370 C.3     1  UNL1        0.0305
     48 C          59.4759   92.0116    4.5285 C.ar    1  UNL1        0.1724
     49 C          58.1248   91.5952    5.0297 C.ar    1  UNL1        0.0397
     50 C          57.9778   90.3366    5.8325 C.ar    1  UNL1       -0.0009
     51 C          59.1819   89.4946    6.1342 C.ar    1  UNL1       -0.0188
     52 C          60.5330   89.9110    5.6331 C.ar    1  UNL1        0.0358
     53 C          60.6799   91.1695    4.8302 C.ar    1  UNL1        0.1721
     54 C          59.7563   93.1966    2.2335 C.3     1  UNL1        0.2526
     55 O          59.6229   93.2701    3.7257 O.3     1  UNL1       -0.4684
     56 O          62.0311   91.5859    4.3291 O.3     1  UNL1       -0.4684
     57 C          62.7271   90.7686    3.2815 C.3     1  UNL1        0.2526
@<TRIPOS>BOND
     1    54    55    1
     2    55    48    1
     3    48    49   ar
     4    49    50   ar
     5    50    51   ar
     6    51    47    1
     7    47    46    1
     8    31    46    1
     9    31    30    1
    10    30     1    1
    11     1     2    2
    12     3     1    1
    13     3     4    1
    14     4     5    1
    15     5     6    1
    16     6     7    1
    17     7     8    1
    18     8     9   am
    19     9    10    2
    20     9    11    1
    21    11    18    1
    22    18    19   ar
    23    19    20   ar
    24    20    24    1
    25    24    25    1
    26    20    21   ar
    27    21    26    1
    28    26    27    1
    29    21    22   ar
    30    22    28    1
    31    28    29    1
    32    22    23   ar
    33    11    12    1
    34    12    13    1
    35    13    14    1
    36    14    15    1
    37    15    16    1
    38    16    17    1
    39    31    32    1
    40    32    33   ar
    41    33    34   ar
    42    34    35   ar
    43    35    36   ar
    44    36    38    1
    45    38    39    1
    46    39    40    1
    47    40    41    1
    48    41    42    1
    49    42    43    1
    50    43    44    1
    51    44    45    1
    52    36    37   ar
    53    51    52   ar
    54    52    53   ar
    55    53    56    1
    56    56    57    1
    57    53    48   ar
    58     8     3    1
    59    23    18   ar
    60    17    12    1
    61    37    32   ar
    62    45    40    1
@<TRIPOS>MOLECULE
*****
 57 62 0 0 0
SMALL
GASTEIGER

@<TRIPOS>ATOM
      1 C          60.3829   89.4669    9.4934 C.2     1  UNL1        0.3354
      2 O          61.7866   89.2188    9.0265 O.2     1  UNL1       -0.2483
      3 C          60.0468   89.3561   10.9510 C.3     1  UNL1        0.1746
      4 C          58.6683   88.9423   11.3734 C.3     1  UNL1        0.0314
      5 C          58.3321   88.8314   12.8311 C.3     1  UNL1        0.0040
      6 C          59.3745   89.1344   13.8663 C.3     1  UNL1        0.0216
      7 C          60.7530   89.5482   13.4438 C.3     1  UNL1        0.0939
      8 N          61.0892   89.6590   11.9862 N.am    1  UNL1       -0.2712
      9 C          62.4677   90.0728   11.5638 C.2     1  UNL1        0.2296
     10 O          62.8038   90.1836   10.1061 O.2     1  UNL1       -0.2745
     11 C          63.5101   90.3757   12.5990 C.3     1  UNL1        0.0991
     12 C          63.6427   89.4989   13.8088 C.3     1  UNL1        0.0127
     13 C          63.2707   90.0273   15.1625 C.3     1  UNL1        0.0008
     14 C          63.4034   89.1505   16.3723 C.3     1  UNL1        0.0000
     15 C          63.9081   87.7452   16.2283 C.3     1  UNL1        0.0000
     16 C          64.2801   87.2169   14.8747 C.3     1  UNL1        0.0000
     17 C          64.1474   88.0937   13.6649 C.3     1  UNL1        0.0008
     18 C          64.4198   91.5556   12.4244 C.ar    1  UNL1       -0.0076
     19 C          65.1166   92.1478   13.6135 C.ar    1  UNL1        0.0365
     20 C          66.0263   93.3275   13.4390 C.ar    1  UNL1        0.1751
     21 C          66.2393   93.9151   12.0754 C.ar    1  UNL1        0.2060
     22 C          65.5425   93.3229   10.8864 C.ar    1  UNL1        0.1751
     23 C          64.6328   92.1431   11.0609 C.ar    1  UNL1        0.0365
     24 O          66.7231   93.9197   14.6280 O.3     1  UNL1       -0.4683
     25 C          67.6870   93.0896   15.4227 C.3     1  UNL1        0.2526
     26 O          67.1491   95.0949   11.9009 O.3     1  UNL1       -0.4654
     27 C          66.5726   96.4527   11.6286 C.3     1  UNL1        0.2528
     28 O          65.7556   93.9106    9.5228 O.3     1  UNL1       -0.4683
     29 C          67.1381   93.9842    8.9454 C.3     1  UNL1        0.2526
     30 O          59.3154   89.8259    8.5026 O.3     1  UNL1       -0.4465
     31 C          59.4138   89.3428    7.0860 C.3     1  UNL1        0.1916
     32 C          59.3218   90.3204    5.9521 C.ar    1  UNL1        0.0203
     33 C          57.9902   90.8853    5.5550 C.ar    1  UNL1       -0.0006
     34 C          57.8983   91.8630    4.4210 C.ar    1  UNL1        0.0029
     35 C          59.1379   92.2757    3.6842 C.ar    1  UNL1        0.0369
     36 C          60.4696   91.7108    4.0813 C.ar    1  UNL1        0.1403
     37 C          60.5615   90.7332    5.2152 C.ar    1  UNL1        0.0361
     38 O          61.7092   92.1235    3.3445 O.3     1  UNL1       -0.4582
     39 C          61.5984   92.8048    2.0127 C.3     1  UNL1        0.2847
     40 N          62.7822   93.5241    1.4374 N.3     1  UNL1       -0.2308
     41 C          64.1346   92.8756    1.4540 C.3     1  UNL1        0.1075
     42 C          65.3185   93.5949    0.8787 C.3     1  UNL1        0.1596
     43 O          65.1500   94.9628    0.2868 O.3     1  UNL1       -0.3508
     44 C          63.7975   95.6115    0.2702 C.3     1  UNL1        0.1596
     45 C          62.6136   94.8921    0.8455 C.3     1  UNL1        0.1075
     46 C          59.6042   87.8820    6.8033 C.3     1  UNL1        0.0530
     47 C          59.4441   86.8776    7.9057 C.3     1  UNL1        0.0305
     48 C          63.0570   84.7866    9.5865 C.ar    1  UNL1        0.1724
     49 C          62.7888   84.7514    8.1111 C.ar    1  UNL1        0.0397
     50 C          61.5845   85.4484    7.5509 C.ar    1  UNL1       -0.0009
     51 C          60.6484   86.1806    8.4660 C.ar    1  UNL1       -0.0188
     52 C          60.9166   86.2158    9.9414 C.ar    1  UNL1        0.0358
     53 C          62.1209   85.5188   10.5016 C.ar    1  UNL1        0.1721
     54 C          64.2721   82.5950   10.2721 C.3     1  UNL1        0.2526
     55 O          64.2613   84.0896   10.1468 O.3     1  UNL1       -0.4684
     56 O          62.3890   85.5541   11.9771 O.3     1  UNL1       -0.4684
     57 C          62.4404   84.2761   12.7608 C.3     1  UNL1        0.2526
@<TRIPOS>BOND
     1    54    55    1
     2    55    48    1
     3    48    49   ar
     4    49    50   ar
     5    50    51   ar
     6    51    47    1
     7    47    46    1
     8    31    46    1
     9    31    30    1
    10    30     1    1
    11     1     2    2
    12     3     1    1
    13     3     4    1
    14     4     5    1
    15     5     6    1
    16     6     7    1
    17     7     8    1
    18     8     9   am
    19     9    10    2
    20     9    11    1
    21    11    18    1
    22    18    19   ar
    23    19    20   ar
    24    20    24    1
    25    24    25    1
    26    20    21   ar
    27    21    26    1
    28    26    27    1
    29    21    22   ar
    30    22    28    1
    31    28    29    1
    32    22    23   ar
    33    11    12    1
    34    12    13    1
    35    13    14    1
    36    14    15    1
    37    15    16    1
    38    16    17    1
    39    31    32    1
    40    32    33   ar
    41    33    34   ar
    42    34    35   ar
    43    35    36   ar
    44    36    38    1
    45    38    39    1
    46    39    40    1
    47    40    41    1
    48    41    42    1
    49    42    43    1
    50    43    44    1
    51    44    45    1
    52    36    37   ar
    53    51    52   ar
    54    52    53   ar
    55    53    56    1
    56    56    57    1
    57    53    48   ar
    58     8     3    1
    59    23    18   ar
    60    17    12    1
    61    37    32   ar
    62    45    40    1
@<TRIPOS>MOLECULE
*****
 57 62 0 0 0
SMALL
GASTEIGER

@<TRIPOS>ATOM
      1 C          60.4146   89.4692    9.5504 C.2     1  UNL1        0.3354
      2 O          61.8138   89.1778    9.0952 O.2     1  UNL1       -0.2483
      3 C          60.0598   89.3564   11.0034 C.3     1  UNL1        0.1746
      4 C          58.6694   88.9648   11.4078 C.3     1  UNL1        0.0314
      5 C          58.3146   88.8520   12.8609 C.3     1  UNL1        0.0040
      6 C          59.3503   89.1307   13.9096 C.3     1  UNL1        0.0216
      7 C          60.7406   89.5223   13.5052 C.3     1  UNL1        0.0939
      8 N          61.0954   89.6351   12.0522 N.am    1  UNL1       -0.2712
      9 C          62.4858   90.0267   11.6478 C.2     1  UNL1        0.2296
     10 O          62.8406   90.1395   10.1947 O.2     1  UNL1       -0.2745
     11 C          63.5214   90.3055   12.6965 C.3     1  UNL1        0.0991
     12 C          63.6512   89.3966   13.8827 C.3     1  UNL1        0.0127
     13 C          63.2695   89.8864   15.2482 C.3     1  UNL1        0.0008
     14 C          63.3992   88.9776   16.4344 C.3     1  UNL1        0.0000
     15 C          63.9107   87.5788   16.2552 C.3     1  UNL1        0.0000
     16 C          64.2923   87.0890   14.8897 C.3     1  UNL1        0.0000
     17 C          64.1626   87.9979   13.7035 C.3     1  UNL1        0.0008
     18 C          64.4273   91.4931   12.5590 C.ar    1  UNL1       -0.0076
     19 C          64.5999   92.1541   11.2236 C.ar    1  UNL1        0.0365
     20 C          65.5058   93.3417   11.0860 C.ar    1  UNL1        0.1751
     21 C          66.2390   93.8683   12.2839 C.ar    1  UNL1        0.2060
     22 C          66.0664   93.2074   13.6193 C.ar    1  UNL1        0.1751
     23 C          65.1606   92.0198   13.7569 C.ar    1  UNL1        0.0365
     24 O          65.6784   94.0027    9.7506 O.3     1  UNL1       -0.4683
     25 C          67.0113   93.9686    9.0636 C.3     1  UNL1        0.2526
     26 O          67.1450   95.0560   12.1464 O.3     1  UNL1       -0.4654
     27 C          66.5721   96.4016   11.8133 C.3     1  UNL1        0.2528
     28 O          66.7998   93.7341   14.8172 O.3     1  UNL1       -0.4683
     29 C          66.9873   92.8635   16.0243 C.3     1  UNL1        0.2526
     30 O          59.3701   89.8735    8.5525 O.3     1  UNL1       -0.4465
     31 C          59.4441   89.3672    7.1425 C.3     1  UNL1        0.1916
     32 C          59.3514   90.3283    5.9946 C.ar    1  UNL1        0.0203
     33 C          58.0179   90.8770    5.5816 C.ar    1  UNL1       -0.0006
     34 C          57.9252   91.8381    4.4337 C.ar    1  UNL1        0.0029
     35 C          59.1661   92.2505    3.6987 C.ar    1  UNL1        0.0369
     36 C          60.4997   91.7017    4.1118 C.ar    1  UNL1        0.1403
     37 C          60.5923   90.7406    5.2597 C.ar    1  UNL1        0.0361
     38 O          61.7406   92.1141    3.3768 O.3     1  UNL1       -0.4582
     39 C          61.6574   92.5268    1.9371 C.3     1  UNL1        0.2847
     40 N          62.7504   93.3556    1.3301 N.3     1  UNL1       -0.2308
     41 C          62.4160   94.6333    0.6191 C.3     1  UNL1        0.1075
     42 C          63.5090   95.4621    0.0121 C.3     1  UNL1        0.1596
     43 O          64.9364   95.0132    0.1161 O.3     1  UNL1       -0.3508
     44 C          65.2709   93.7354    0.8272 C.3     1  UNL1        0.1596
     45 C          64.1779   92.9066    1.4341 C.3     1  UNL1        0.1075
     46 C          59.6107   87.8997    6.8804 C.3     1  UNL1        0.0530
     47 C          59.4524   86.9150    8.0008 C.3     1  UNL1        0.0305
     48 C          63.0547   84.7723    9.6387 C.ar    1  UNL1        0.1724
     49 C          62.7820   84.7615    8.1638 C.ar    1  UNL1        0.0397
     50 C          61.5813   85.4758    7.6178 C.ar    1  UNL1       -0.0009
     51 C          60.6532   86.2007    8.5468 C.ar    1  UNL1       -0.0188
     52 C          60.9258   86.2115   10.0217 C.ar    1  UNL1        0.0358
     53 C          62.1266   85.4972   10.5677 C.ar    1  UNL1        0.1721
     54 C          64.2351   82.5661   10.3382 C.3     1  UNL1        0.2526
     55 O          64.2554   84.0580   10.1847 O.3     1  UNL1       -0.4684
     56 O          62.3992   85.5080   12.0427 O.3     1  UNL1       -0.4684
     57 C          62.4181   84.2201   12.8114 C.3     1  UNL1        0.2526
@<TRIPOS>BOND
     1    54    55    1
     2    55    48    1
     3    48    49   ar
     4    49    50   ar
     5    50    51   ar
     6    51    47    1
     7    47    46    1
     8    31    46    1
     9    31    30    1
    10    30     1    1
    11     1     2    2
    12     3     1    1
    13     3     4    1
    14     4     5    1
    15     5     6    1
    16     6     7    1
    17     7     8    1
    18     8     9   am
    19     9    10    2
    20     9    11    1
    21    11    18    1
    22    18    19   ar
    23    19    20   ar
    24    20    24    1
    25    24    25    1
    26    20    21   ar
    27    21    26    1
    28    26    27    1
    29    21    22   ar
    30    22    28    1
    31    28    29    1
    32    22    23   ar
    33    11    12    1
    34    12    13    1
    35    13    14    1
    36    14    15    1
    37    15    16    1
    38    16    17    1
    39    31    32    1
    40    32    33   ar
    41    33    34   ar
    42    34    35   ar
    43    35    36   ar
    44    36    38    1
    45    38    39    1
    46    39    40    1
    47    40    41    1
    48    41    42    1
    49    42    43    1
    50    43    44    1
    51    44    45    1
    52    36    37   ar
    53    51    52   ar
    54    52    53   ar
    55    53    56    1
    56    56    57    1
    57    53    48   ar
    58     8     3    1
    59    23    18   ar
    60    17    12    1
    61    37    32   ar
    62    45    40    1
@<TRIPOS>MOLECULE
*****
 57 62 0 0 0
SMALL
GASTEIGER

@<TRIPOS>ATOM
      1 C          61.2334   90.1520    9.2538 C.2     1  UNL1        0.3354
      2 O          62.0249   91.4020    9.0068 O.2     1  UNL1       -0.2483
      3 C          60.6087   89.9129   10.5964 C.3     1  UNL1        0.1746
      4 C          59.1154   89.8731   10.7324 C.3     1  UNL1        0.0314
      5 C          58.4907   89.6340   12.0750 C.3     1  UNL1        0.0040
      6 C          59.3593   89.4347   13.2816 C.3     1  UNL1        0.0216
      7 C          60.8526   89.4745   13.1456 C.3     1  UNL1        0.0939
      8 N          61.4773   89.7136   11.8030 N.am    1  UNL1       -0.2712
      9 C          62.9706   89.7533   11.6670 C.2     1  UNL1        0.2296
     10 O          63.5953   89.9924   10.3244 O.2     1  UNL1       -0.2745
     11 C          63.8392   89.5540   12.8736 C.3     1  UNL1        0.0991
     12 C          63.8607   88.2262   13.5711 C.3     1  UNL1        0.0127
     13 C          63.5582   86.9720   12.8058 C.3     1  UNL1        0.0008
     14 C          63.5798   85.6442   13.5034 C.3     1  UNL1        0.0000
     15 C          63.9039   85.5707   14.9661 C.3     1  UNL1        0.0000
     16 C          64.2063   86.8249   15.7313 C.3     1  UNL1        0.0000
     17 C          64.1848   88.1526   15.0338 C.3     1  UNL1        0.0008
     18 C          64.6862   90.6825   13.3826 C.ar    1  UNL1       -0.0076
     19 C          64.7268   90.9866   14.8509 C.ar    1  UNL1        0.0365
     20 C          65.5738   92.1150   15.3600 C.ar    1  UNL1        0.1751
     21 C          66.3802   92.9393   14.4008 C.ar    1  UNL1        0.2060
     22 C          66.3396   92.6353   12.9325 C.ar    1  UNL1        0.1751
     23 C          65.4926   91.5068   12.4234 C.ar    1  UNL1        0.0365
     24 O          65.6144   92.4190   16.8283 O.3     1  UNL1       -0.4683
     25 C          64.3473   92.7442   17.5622 C.3     1  UNL1        0.2526
     26 O          67.2273   94.0678   14.9099 O.3     1  UNL1       -0.4654
     27 C          68.5021   93.7764   15.6447 C.3     1  UNL1        0.2528
     28 O          67.1461   93.4597   11.9733 O.3     1  UNL1       -0.4683
     29 C          66.5221   93.9567   10.7030 C.3     1  UNL1        0.2526
     30 O          61.0667   89.1411    8.1583 O.3     1  UNL1       -0.4465
     31 C          59.7985   89.1044    7.3582 C.3     1  UNL1        0.1916
     32 C          59.5595   90.1238    6.2840 C.ar    1  UNL1        0.0203
     33 C          58.1762   90.6527    6.0463 C.ar    1  UNL1       -0.0006
     34 C          57.9372   91.6720    4.9721 C.ar    1  UNL1        0.0029
     35 C          59.0817   92.1624    4.1356 C.ar    1  UNL1        0.0369
     36 C          60.4651   91.6335    4.3734 C.ar    1  UNL1        0.1403
     37 C          60.7040   90.6142    5.4476 C.ar    1  UNL1        0.0361
     38 O          61.6096   92.1239    3.5369 O.3     1  UNL1       -0.4582
     39 C          61.3429   92.8204    2.2354 C.3     1  UNL1        0.2847
     40 N          62.4875   93.2493    1.3660 N.3     1  UNL1       -0.2308
     41 C          62.2212   93.9542    0.0691 C.3     1  UNL1        0.1075
     42 C          63.3658   94.3830   -0.8004 C.3     1  UNL1        0.1596
     43 O          64.7768   94.1070   -0.3729 O.3     1  UNL1       -0.3508
     44 C          65.0432   93.4020    0.9241 C.3     1  UNL1        0.1596
     45 C          63.8986   92.9732    1.7936 C.3     1  UNL1        0.1075
     46 C          58.7691   88.0484    7.6324 C.3     1  UNL1        0.0530
     47 C          58.9785   87.0687    8.7487 C.3     1  UNL1        0.0305
     48 C          62.8746   84.8426    9.0874 C.ar    1  UNL1        0.1724
     49 C          62.2236   85.4060   10.3156 C.ar    1  UNL1        0.0397
     50 C          60.9248   86.1481   10.2027 C.ar    1  UNL1       -0.0009
     51 C          60.2772   86.3266    8.8616 C.ar    1  UNL1       -0.0188
     52 C          60.9283   85.7632    7.6334 C.ar    1  UNL1        0.0358
     53 C          62.2270   85.0212    7.7463 C.ar    1  UNL1        0.1721
     54 C          64.3291   83.0122   10.2206 C.3     1  UNL1        0.2526
     55 O          64.1734   84.1006    9.2003 O.3     1  UNL1       -0.4684
     56 O          62.8781   84.4577    6.5180 O.3     1  UNL1       -0.4684
     57 C          62.0470   84.1231    5.3150 C.3     1  UNL1        0.2526
@<TRIPOS>BOND
     1    54    55    1
     2    55    48    1
     3    48    49   ar
     4    49    50   ar
     5    50    51   ar
     6    51    47    1
     7    47    46    1
     8    31    46    1
     9    31    30    1
    10    30     1    1
    11     1     2    2
    12     3     1    1
    13     3     4    1
    14     4     5    1
    15     5     6    1
    16     6     7    1
    17     7     8    1
    18     8     9   am
    19     9    10    2
    20     9    11    1
    21    11    18    1
    22    18    19   ar
    23    19    20   ar
    24    20    24    1
    25    24    25    1
    26    20    21   ar
    27    21    26    1
    28    26    27    1
    29    21    22   ar
    30    22    28    1
    31    28    29    1
    32    22    23   ar
    33    11    12    1
    34    12    13    1
    35    13    14    1
    36    14    15    1
    37    15    16    1
    38    16    17    1
    39    31    32    1
    40    32    33   ar
    41    33    34   ar
    42    34    35   ar
    43    35    36   ar
    44    36    38    1
    45    38    39    1
    46    39    40    1
    47    40    41    1
    48    41    42    1
    49    42    43    1
    50    43    44    1
    51    44    45    1
    52    36    37   ar
    53    51    52   ar
    54    52    53   ar
    55    53    56    1
    56    56    57    1
    57    53    48   ar
    58     8     3    1
    59    23    18   ar
    60    17    12    1
    61    37    32   ar
    62    45    40    1
@<TRIPOS>MOLECULE
*****
 57 62 0 0 0
SMALL
GASTEIGER

@<TRIPOS>ATOM
      1 C          61.5007   90.1479    9.5769 C.2     1  UNL1        0.3354
      2 O          62.3028   91.4039    9.4062 O.2     1  UNL1       -0.2483
      3 C          60.8476   89.8483   10.8935 C.3     1  UNL1        0.1746
      4 C          59.3759   89.5641   10.9533 C.3     1  UNL1        0.0314
      5 C          58.7228   89.2645   12.2700 C.3     1  UNL1        0.0040
      6 C          59.5413   89.2490   13.5269 C.3     1  UNL1        0.0216
      7 C          61.0129   89.5331   13.4671 C.3     1  UNL1        0.0939
      8 N          61.6661   89.8328   12.1505 N.am    1  UNL1       -0.2712
      9 C          63.1377   90.1169   12.0907 C.2     1  UNL1        0.2296
     10 O          63.7908   90.4165   10.7740 O.2     1  UNL1       -0.2745
     11 C          63.9562   90.1014   13.3476 C.3     1  UNL1        0.0991
     12 C          63.8249   88.9618   14.3141 C.3     1  UNL1        0.0127
     13 C          64.2259   87.5770   13.8998 C.3     1  UNL1        0.0008
     14 C          64.0946   86.4374   14.8663 C.3     1  UNL1        0.0000
     15 C          63.5624   86.6827   16.2471 C.3     1  UNL1        0.0000
     16 C          63.1615   88.0674   16.6614 C.3     1  UNL1        0.0000
     17 C          63.2927   89.2070   15.6949 C.3     1  UNL1        0.0008
     18 C          64.9060   91.2255   13.6381 C.ar    1  UNL1       -0.0076
     19 C          65.0901   92.3289   12.6388 C.ar    1  UNL1        0.0365
     20 C          66.0398   93.4530   12.9291 C.ar    1  UNL1        0.1751
     21 C          66.8055   93.4737   14.2188 C.ar    1  UNL1        0.2060
     22 C          66.6213   92.3703   15.2181 C.ar    1  UNL1        0.1751
     23 C          65.6716   91.2462   14.9277 C.ar    1  UNL1        0.0365
     24 O          66.2240   94.5564   11.9298 O.3     1  UNL1       -0.4683
     25 C          66.5419   94.2289   10.5010 C.3     1  UNL1        0.2526
     26 O          67.7553   94.5979   14.5093 O.3     1  UNL1       -0.4654
     27 C          68.7312   94.4813   15.6423 C.3     1  UNL1        0.2528
     28 O          67.3870   92.3911   16.5079 O.3     1  UNL1       -0.4683
     29 C          68.7670   91.8065   16.5703 C.3     1  UNL1        0.2526
     30 O          61.3518   89.1916    8.4309 O.3     1  UNL1       -0.4465
     31 C          60.0450   89.0931    7.7012 C.3     1  UNL1        0.1916
     32 C          59.7478   90.0269    6.5655 C.ar    1  UNL1        0.0203
     33 C          58.3368   90.4622    6.3021 C.ar    1  UNL1       -0.0006
     34 C          58.0397   91.3960    5.1663 C.ar    1  UNL1        0.0029
     35 C          59.1536   91.8944    4.2941 C.ar    1  UNL1        0.0369
     36 C          60.5647   91.4590    4.5576 C.ar    1  UNL1        0.1403
     37 C          60.8618   90.5252    5.6933 C.ar    1  UNL1        0.0361
     38 O          61.6786   91.9573    3.6854 O.3     1  UNL1       -0.4582
     39 C          61.3682   92.7725    2.4649 C.3     1  UNL1        0.2847
     40 N          62.4828   93.3773    1.6637 N.3     1  UNL1       -0.2308
     41 C          63.8604   92.7878    1.7310 C.3     1  UNL1        0.1075
     42 C          64.9749   93.3926    0.9297 C.3     1  UNL1        0.1596
     43 O          64.7118   94.5869    0.0611 O.3     1  UNL1       -0.3508
     44 C          63.3341   95.1764   -0.0063 C.3     1  UNL1        0.1596
     45 C          62.2196   94.5716    0.7950 C.3     1  UNL1        0.1075
     46 C          59.0352   88.0608    8.1072 C.3     1  UNL1        0.0530
     47 C          59.3039   86.6075    7.8512 C.3     1  UNL1        0.0305
     48 C          63.1269   84.7349    9.3098 C.ar    1  UNL1        0.1724
     49 C          62.7635   84.6630    7.8563 C.ar    1  UNL1        0.0397
     50 C          61.4891   85.2872    7.3701 C.ar    1  UNL1       -0.0009
     51 C          60.5782   85.9833    8.3374 C.ar    1  UNL1       -0.0188
     52 C          60.9416   86.0551    9.7909 C.ar    1  UNL1        0.0358
     53 C          62.2160   85.4309   10.2771 C.ar    1  UNL1        0.1721
     54 C          64.4126   82.6783   10.2412 C.3     1  UNL1        0.2526
     55 O          64.4013   84.1106    9.7960 O.3     1  UNL1       -0.4684
     56 O          62.5794   85.5027   11.7307 O.3     1  UNL1       -0.4684
     57 C          62.4391   84.2882   12.5998 C.3     1  UNL1        0.2526
@<TRIPOS>BOND
     1    54    55    1
     2    55    48    1
     3    48    49   ar
     4    49    50   ar
     5    50    51   ar
     6    51    47    1
     7    47    46    1
     8    31    46    1
     9    31    30    1
    10    30     1    1
    11     1     2    2
    12     3     1    1
    13     3     4    1
    14     4     5    1
    15     5     6    1
    16     6     7    1
    17     7     8    1
    18     8     9   am
    19     9    10    2
    20     9    11    1
    21    11    18    1
    22    18    19   ar
    23    19    20   ar
    24    20    24    1
    25    24    25    1
    26    20    21   ar
    27    21    26    1
    28    26    27    1
    29    21    22   ar
    30    22    28    1
    31    28    29    1
    32    22    23   ar
    33    11    12    1
    34    12    13    1
    35    13    14    1
    36    14    15    1
    37    15    16    1
    38    16    17    1
    39    31    32    1
    40    32    33   ar
    41    33    34   ar
    42    34    35   ar
    43    35    36   ar
    44    36    38    1
    45    38    39    1
    46    39    40    1
    47    40    41    1
    48    41    42    1
    49    42    43    1
    50    43    44    1
    51    44    45    1
    52    36    37   ar
    53    51    52   ar
    54    52    53   ar
    55    53    56    1
    56    56    57    1
    57    53    48   ar
    58     8     3    1
    59    23    18   ar
    60    17    12    1
    61    37    32   ar
    62    45    40    1
@<TRIPOS>MOLECULE
*****
 57 62 0 0 0
SMALL
GASTEIGER

@<TRIPOS>ATOM
      1 C          65.2712   86.7827   15.1894 C.2     1  UNL1        0.3354
      2 O          66.4354   85.8463   15.3223 O.2     1  UNL1       -0.2483
      3 C          63.8918   86.3210   15.5556 C.3     1  UNL1        0.1746
      4 C          63.3065   86.6887   16.8868 C.3     1  UNL1        0.0314
      5 C          61.9271   86.2270   17.2530 C.3     1  UNL1        0.0040
      6 C          61.1330   85.3975   16.2879 C.3     1  UNL1        0.0216
      7 C          61.7183   85.0297   14.9567 C.3     1  UNL1        0.0939
      8 N          63.0977   85.4914   14.5905 N.am    1  UNL1       -0.2712
      9 C          63.6830   85.1237   13.2593 C.2     1  UNL1        0.2296
     10 O          65.0624   85.5855   12.8931 O.2     1  UNL1       -0.2745
     11 C          62.8889   84.2942   12.2942 C.3     1  UNL1        0.0991
     12 C          62.6987   82.8277   12.5454 C.3     1  UNL1        0.0127
     13 C          63.0656   81.8315   11.4857 C.3     1  UNL1        0.0008
     14 C          62.8755   80.3649   11.7369 C.3     1  UNL1        0.0000
     15 C          62.3184   79.8946   13.0479 C.3     1  UNL1        0.0000
     16 C          61.9515   80.8908   14.1075 C.3     1  UNL1        0.0000
     17 C          62.1417   82.3574   13.8563 C.3     1  UNL1        0.0008
     18 C          62.2849   84.9313   11.0779 C.ar    1  UNL1       -0.0076
     19 C          61.1823   85.9372   11.2273 C.ar    1  UNL1        0.0365
     20 C          60.5783   86.5742   10.0110 C.ar    1  UNL1        0.1751
     21 C          61.0770   86.2054    8.6453 C.ar    1  UNL1        0.2060
     22 C          62.1797   85.1995    8.4959 C.ar    1  UNL1        0.1751
     23 C          62.7836   84.5624    9.7121 C.ar    1  UNL1        0.0365
     24 O          59.4757   87.5801   10.1604 O.3     1  UNL1       -0.4683
     25 C          59.4413   88.4830   11.3578 C.3     1  UNL1        0.2526
     26 O          60.4731   86.8424    7.4289 O.3     1  UNL1       -0.4654
     27 C          58.9885   87.0397    7.3445 C.3     1  UNL1        0.2528
     28 O          62.6784   84.8307    7.1301 O.3     1  UNL1       -0.4683
     29 C          61.7233   84.3055    6.0995 C.3     1  UNL1        0.2526
     30 O          65.4863   88.1808   14.6903 O.3     1  UNL1       -0.4465
     31 C          64.3114   89.0851   14.4630 C.3     1  UNL1        0.1916
     32 C          63.8654   89.3984   13.0654 C.ar    1  UNL1        0.0203
     33 C          63.0757   88.3890   12.2861 C.ar    1  UNL1       -0.0006
     34 C          62.6297   88.7023   10.8886 C.ar    1  UNL1        0.0029
     35 C          62.9736   90.0251   10.2704 C.ar    1  UNL1        0.0369
     36 C          63.7634   91.0345   11.0499 C.ar    1  UNL1        0.1403
     37 C          64.2093   90.7212   12.4473 C.ar    1  UNL1        0.0361
     38 O          64.1072   92.3573   10.4317 O.3     1  UNL1       -0.4582
     39 C          65.0662   93.2812   11.1223 C.3     1  UNL1        0.2847
     40 N          65.8835   94.2500   10.3202 N.3     1  UNL1       -0.2308
     41 C          65.5349   95.7089   10.3246 C.3     1  UNL1        0.1075
     42 C          66.3522   96.6778    9.5225 C.3     1  UNL1        0.1596
     43 O          67.5181   96.1877    8.7160 O.3     1  UNL1       -0.3508
     44 C          67.8667   94.7288    8.7115 C.3     1  UNL1        0.1596
     45 C          67.0494   93.7599    9.5136 C.3     1  UNL1        0.1075
     46 C          63.5823   89.6761   15.6331 C.3     1  UNL1        0.0530
     47 C          63.8261   91.1031   16.0257 C.3     1  UNL1        0.0305
     48 C          67.8481   92.9831   15.2913 C.ar    1  UNL1        0.1724
     49 C          67.2894   92.9264   16.6822 C.ar    1  UNL1        0.0397
     50 C          65.9488   92.2997   16.9270 C.ar    1  UNL1       -0.0009
     51 C          65.1668   91.7297   15.7809 C.ar    1  UNL1       -0.0188
     52 C          65.7254   91.7865   14.3900 C.ar    1  UNL1        0.0358
     53 C          67.0661   92.4131   14.1452 C.ar    1  UNL1        0.1721
     54 C          69.7807   94.5369   16.0662 C.3     1  UNL1        0.2526
     55 O          69.1887   93.6097   15.0465 O.3     1  UNL1       -0.4684
     56 O          67.6247   92.4698   12.7542 O.3     1  UNL1       -0.4684
     57 C          68.6893   91.5006   12.3335 C.3     1  UNL1        0.2526
@<TRIPOS>BOND
     1    54    55    1
     2    55    48    1
     3    48    49   ar
     4    49    50   ar
     5    50    51   ar
     6    51    47    1
     7    47    46    1
     8    31    46    1
     9    31    30    1
    10    30     1    1
    11     1     2    2
    12     3     1    1
    13     3     4    1
    14     4     5    1
    15     5     6    1
    16     6     7    1
    17     7     8    1
    18     8     9   am
    19     9    10    2
    20     9    11    1
    21    11    18    1
    22    18    19   ar
    23    19    20   ar
    24    20    24    1
    25    24    25    1
    26    20    21   ar
    27    21    26    1
    28    26    27    1
    29    21    22   ar
    30    22    28    1
    31    28    29    1
    32    22    23   ar
    33    11    12    1
    34    12    13    1
    35    13    14    1
    36    14    15    1
    37    15    16    1
    38    16    17    1
    39    31    32    1
    40    32    33   ar
    41    33    34   ar
    42    34    35   ar
    43    35    36   ar
    44    36    38    1
    45    38    39    1
    46    39    40    1
    47    40    41    1
    48    41    42    1
    49    42    43    1
    50    43    44    1
    51    44    45    1
    52    36    37   ar
    53    51    52   ar
    54    52    53   ar
    55    53    56    1
    56    56    57    1
    57    53    48   ar
    58     8     3    1
    59    23    18   ar
    60    17    12    1
    61    37    32   ar
    62    45    40    1
@<TRIPOS>MOLECULE
*****
 57 62 0 0 0
SMALL
GASTEIGER

@<TRIPOS>ATOM
      1 C          65.2390   86.7884   15.1915 C.2     1  UNL1        0.3354
      2 O          66.3900   85.8278   15.2401 O.2     1  UNL1       -0.2483
      3 C          63.8599   86.3256   15.5573 C.3     1  UNL1        0.1746
      4 C          63.2767   86.6869   16.8912 C.3     1  UNL1        0.0314
      5 C          61.8976   86.2240   17.2570 C.3     1  UNL1        0.0040
      6 C          61.1017   85.3999   16.2888 C.3     1  UNL1        0.0216
      7 C          61.6849   85.0386   14.9549 C.3     1  UNL1        0.0939
      8 N          63.0640   85.5014   14.5891 N.am    1  UNL1       -0.2712
      9 C          63.6472   85.1401   13.2552 C.2     1  UNL1        0.2296
     10 O          65.0264   85.6030   12.8895 O.2     1  UNL1       -0.2745
     11 C          62.8513   84.3160   12.2871 C.3     1  UNL1        0.0991
     12 C          62.6546   82.8497   12.5349 C.3     1  UNL1        0.0127
     13 C          62.0680   82.3806   13.8334 C.3     1  UNL1        0.0008
     14 C          61.8713   80.9144   14.0812 C.3     1  UNL1        0.0000
     15 C          62.2612   79.9172   13.0306 C.3     1  UNL1        0.0000
     16 C          62.8478   80.3864   11.7322 C.3     1  UNL1        0.0000
     17 C          63.0445   81.8526   11.4844 C.3     1  UNL1        0.0008
     18 C          62.2521   84.9581   11.0711 C.ar    1  UNL1       -0.0076
     19 C          62.7302   84.5675    9.7040 C.ar    1  UNL1        0.0365
     20 C          62.1310   85.2095    8.4880 C.ar    1  UNL1        0.1751
     21 C          61.0537   86.2422    8.6391 C.ar    1  UNL1        0.2060
     22 C          60.5755   86.6328   10.0061 C.ar    1  UNL1        0.1751
     23 C          61.1747   85.9908   11.2221 C.ar    1  UNL1        0.0365
     24 O          62.6092   84.8189    7.1210 O.3     1  UNL1       -0.4683
     25 C          61.6414   84.2648    6.1179 C.3     1  UNL1        0.2526
     26 O          60.4545   86.8843    7.4230 O.3     1  UNL1       -0.4654
     27 C          58.9649   87.0077    7.2971 C.3     1  UNL1        0.2528
     28 O          59.4981   87.6656   10.1571 O.3     1  UNL1       -0.4683
     29 C          59.3392   88.3993   11.4557 C.3     1  UNL1        0.2526
     30 O          65.4672   88.2119   14.7772 O.3     1  UNL1       -0.4465
     31 C          64.2975   89.1178   14.5302 C.3     1  UNL1        0.1916
     32 C          63.8563   89.4071   13.1260 C.ar    1  UNL1        0.0203
     33 C          63.0560   88.3907   12.3668 C.ar    1  UNL1       -0.0006
     34 C          62.6148   88.6801   10.9626 C.ar    1  UNL1        0.0029
     35 C          62.9739   89.9859   10.3177 C.ar    1  UNL1        0.0369
     36 C          63.7743   91.0023   11.0769 C.ar    1  UNL1        0.1403
     37 C          64.2154   90.7129   12.4810 C.ar    1  UNL1        0.0361
     38 O          64.1334   92.3081   10.4320 O.3     1  UNL1       -0.4582
     39 C          65.0028   93.2901   11.1600 C.3     1  UNL1        0.2847
     40 N          65.8683   94.2416   10.3882 N.3     1  UNL1       -0.2308
     41 C          66.9277   93.7132    9.4671 C.3     1  UNL1        0.1075
     42 C          67.7932   94.6647    8.6954 C.3     1  UNL1        0.1596
     43 O          67.5993   96.1445    8.8448 O.3     1  UNL1       -0.3508
     44 C          66.5399   96.6730    9.7659 C.3     1  UNL1        0.1596
     45 C          65.6744   95.7215   10.5377 C.3     1  UNL1        0.1075
     46 C          63.5689   89.7344   15.6873 C.3     1  UNL1        0.0530
     47 C          63.8629   91.1488   16.0910 C.3     1  UNL1        0.0305
     48 C          67.9084   92.9329   15.2538 C.ar    1  UNL1        0.1724
     49 C          67.3811   92.8955   16.6576 C.ar    1  UNL1        0.0397
     50 C          66.0326   92.3008   16.9366 C.ar    1  UNL1       -0.0009
     51 C          65.2114   91.7435   15.8120 C.ar    1  UNL1       -0.0188
     52 C          65.7387   91.7809   14.4082 C.ar    1  UNL1        0.0358
     53 C          67.0872   92.3756   14.1291 C.ar    1  UNL1        0.1721
     54 C          69.8965   94.4401   15.9788 C.3     1  UNL1        0.2526
     55 O          69.2569   93.5276   14.9747 O.3     1  UNL1       -0.4684
     56 O          67.6144   92.4129   12.7253 O.3     1  UNL1       -0.4684
     57 C          68.6950   91.4615   12.3044 C.3     1  UNL1        0.2526
@<TRIPOS>BOND
     1    54    55    1
     2    55    48    1
     3    48    49   ar
     4    49    50   ar
     5    50    51   ar
     6    51    47    1
     7    47    46    1
     8    31    46    1
     9    31    30    1
    10    30     1    1
    11     1     2    2
    12     3     1    1
    13     3     4    1
    14     4     5    1
    15     5     6    1
    16     6     7    1
    17     7     8    1
    18     8     9   am
    19     9    10    2
    20     9    11    1
    21    11    18    1
    22    18    19   ar
    23    19    20   ar
    24    20    24    1
    25    24    25    1
    26    20    21   ar
    27    21    26    1
    28    26    27    1
    29    21    22   ar
    30    22    28    1
    31    28    29    1
    32    22    23   ar
    33    11    12    1
    34    12    13    1
    35    13    14    1
    36    14    15    1
    37    15    16    1
    38    16    17    1
    39    31    32    1
    40    32    33   ar
    41    33    34   ar
    42    34    35   ar
    43    35    36   ar
    44    36    38    1
    45    38    39    1
    46    39    40    1
    47    40    41    1
    48    41    42    1
    49    42    43    1
    50    43    44    1
    51    44    45    1
    52    36    37   ar
    53    51    52   ar
    54    52    53   ar
    55    53    56    1
    56    56    57    1
    57    53    48   ar
    58     8     3    1
    59    23    18   ar
    60    17    12    1
    61    37    32   ar
    62    45    40    1
@<TRIPOS>MOLECULE
*****
 57 62 0 0 0
SMALL
GASTEIGER

@<TRIPOS>ATOM
      1 C          61.3063   90.1556    9.3238 C.2     1  UNL1        0.3354
      2 O          62.0815   91.4151    9.0736 O.2     1  UNL1       -0.2483
      3 C          60.7045   89.9010   10.6740 C.3     1  UNL1        0.1746
      4 C          59.2243   89.6989   10.8094 C.3     1  UNL1        0.0314
      5 C          58.6225   89.4444   12.1596 C.3     1  UNL1        0.0040
      6 C          59.5009   89.3920   13.3744 C.3     1  UNL1        0.0216
      7 C          60.9810   89.5941   13.2390 C.3     1  UNL1        0.0939
      8 N          61.5828   89.8486   11.8888 N.am    1  UNL1       -0.2712
      9 C          63.0630   90.0507   11.7535 C.2     1  UNL1        0.2296
     10 O          63.6648   90.3053   10.4032 O.2     1  UNL1       -0.2745
     11 C          63.9413   89.9983   12.9682 C.3     1  UNL1        0.0991
     12 C          64.8884   91.1248   13.2581 C.3     1  UNL1        0.0127
     13 C          65.0110   92.2682   12.2950 C.3     1  UNL1        0.0008
     14 C          65.9581   93.3947   12.5849 C.3     1  UNL1        0.0000
     15 C          66.7826   93.3777   13.8379 C.3     1  UNL1        0.0000
     16 C          66.6600   92.2343   14.8010 C.3     1  UNL1        0.0000
     17 C          65.7129   91.1078   14.5111 C.3     1  UNL1        0.0008
     18 C          63.8726   88.8194   13.8932 C.ar    1  UNL1       -0.0076
     19 C          63.5253   89.0194   15.3387 C.ar    1  UNL1        0.0365
     20 C          63.4565   87.8406   16.2636 C.ar    1  UNL1        0.1751
     21 C          63.7351   86.4617   15.7431 C.ar    1  UNL1        0.2060
     22 C          64.0823   86.2616   14.2976 C.ar    1  UNL1        0.1751
     23 C          64.1511   87.4404   13.3726 C.ar    1  UNL1        0.0365
     24 O          63.1093   88.0406   17.7091 O.3     1  UNL1       -0.4683
     25 C          62.6428   86.8794   18.5360 C.3     1  UNL1        0.2526
     26 O          63.6663   85.2827   16.6680 O.3     1  UNL1       -0.4654
     27 C          62.6445   84.2087   16.4394 C.3     1  UNL1        0.2528
     28 O          64.3608   84.8826   13.7771 O.3     1  UNL1       -0.4683
     29 C          63.2372   84.0368   13.2554 C.3     1  UNL1        0.2526
     30 O          61.1329   89.1506    8.2238 O.3     1  UNL1       -0.4465
     31 C          59.8856   89.1583    7.3907 C.3     1  UNL1        0.1916
     32 C          59.7286   90.1592    6.2846 C.ar    1  UNL1        0.0203
     33 C          58.3727   90.7131    5.9612 C.ar    1  UNL1       -0.0006
     34 C          58.2157   91.7141    4.8550 C.ar    1  UNL1        0.0029
     35 C          59.4147   92.1611    4.0723 C.ar    1  UNL1        0.0369
     36 C          60.7706   91.6072    4.3958 C.ar    1  UNL1        0.1403
     37 C          60.9276   90.6062    5.5019 C.ar    1  UNL1        0.0361
     38 O          61.9696   92.0542    3.6131 O.3     1  UNL1       -0.4582
     39 C          61.7941   92.6536    2.2493 C.3     1  UNL1        0.2847
     40 N          62.8723   93.5178    1.6654 N.3     1  UNL1       -0.2308
     41 C          64.2136   92.9286    1.3434 C.3     1  UNL1        0.1075
     42 C          65.2917   93.7927    0.7595 C.3     1  UNL1        0.1596
     43 O          65.0286   95.2460    0.4978 O.3     1  UNL1       -0.3508
     44 C          63.6873   95.8353    0.8199 C.3     1  UNL1        0.1596
     45 C          62.6091   94.9712    1.4037 C.3     1  UNL1        0.1075
     46 C          58.7952   88.1650    7.6637 C.3     1  UNL1        0.0530
     47 C          58.9718   87.1339    8.7386 C.3     1  UNL1        0.0305
     48 C          62.8900   84.9590    9.1483 C.ar    1  UNL1        0.1724
     49 C          62.2458   85.5774   10.3536 C.ar    1  UNL1        0.0397
     50 C          60.9398   86.3023   10.2170 C.ar    1  UNL1       -0.0009
     51 C          60.2779   86.4089    8.8752 C.ar    1  UNL1       -0.0188
     52 C          60.9221   85.7906    7.6700 C.ar    1  UNL1        0.0358
     53 C          62.2281   85.0656    7.8065 C.ar    1  UNL1        0.1721
     54 C          64.2727   82.9725   10.0927 C.3     1  UNL1        0.2526
     55 O          64.1961   84.2341    9.2849 O.3     1  UNL1       -0.4684
     56 O          62.8723   84.4472    6.6012 O.3     1  UNL1       -0.4684
     57 C          62.0425   84.1071    5.3989 C.3     1  UNL1        0.2526
@<TRIPOS>BOND
     1    54    55    1
     2    55    48    1
     3    48    49   ar
     4    49    50   ar
     5    50    51   ar
     6    51    47    1
     7    47    46    1
     8    31    46    1
     9    31    30    1
    10    30     1    1
    11     1     2    2
    12     3     1    1
    13     3     4    1
    14     4     5    1
    15     5     6    1
    16     6     7    1
    17     7     8    1
    18     8     9   am
    19     9    10    2
    20     9    11    1
    21    11    18    1
    22    18    19   ar
    23    19    20   ar
    24    20    24    1
    25    24    25    1
    26    20    21   ar
    27    21    26    1
    28    26    27    1
    29    21    22   ar
    30    22    28    1
    31    28    29    1
    32    22    23   ar
    33    11    12    1
    34    12    13    1
    35    13    14    1
    36    14    15    1
    37    15    16    1
    38    16    17    1
    39    31    32    1
    40    32    33   ar
    41    33    34   ar
    42    34    35   ar
    43    35    36   ar
    44    36    38    1
    45    38    39    1
    46    39    40    1
    47    40    41    1
    48    41    42    1
    49    42    43    1
    50    43    44    1
    51    44    45    1
    52    36    37   ar
    53    51    52   ar
    54    52    53   ar
    55    53    56    1
    56    56    57    1
    57    53    48   ar
    58     8     3    1
    59    23    18   ar
    60    17    12    1
    61    37    32   ar
    62    45    40    1
