@<TRIPOS>MOLECULE
*****
 60 67 0 0 0
SMALL
GASTEIGER

@<TRIPOS>ATOM
      1 N          65.4022   89.1897   14.5513 N.3     1  UNL1       -0.1862
      2 C          65.6014   87.9317   15.3436 C.3     1  UNL1        0.1775
      3 C          64.8366   86.6916   14.9869 C.2     1  UNL1        0.2452
      4 O          65.0358   85.4336   15.7793 O.2     1  UNL1       -0.2732
      5 N          63.8726   86.7095   13.8378 N.am    1  UNL1       -0.2541
      6 C          63.1078   85.4695   13.4811 C.3     1  UNL1        0.1577
      7 C          62.1438   85.4873   12.3320 C.2     1  UNL1        0.2445
      8 O          61.3790   84.2473   11.9753 O.2     1  UNL1       -0.2731
      9 N          61.9446   86.7454   11.5396 N.am    1  UNL1       -0.2705
     10 C          62.7094   87.9854   11.8964 C.3     1  UNL1        0.1359
     11 C          63.6734   87.9675   13.0455 C.3     1  UNL1        0.1908
     12 N          64.4383   89.2076   13.4022 N.am    1  UNL1       -0.1863
     13 C          64.2391   90.4656   12.6099 C.2     1  UNL1        0.3191
     14 O          63.2751   90.4835   11.4608 O.2     1  UNL1       -0.2512
     15 N          65.0039   91.7057   12.9666 N.am    1  UNL1       -0.2836
     16 H          65.6366   91.6939   13.7208 H       1  UNL1        0.1513
     17 C          66.1671   90.4297   14.9080 C.3     1  UNL1        0.1188
     18 C          66.2839   92.7254   16.1189 C.2     1  UNL1       -0.0034
     19 C          65.4913   91.5372   15.6609 C.2     1  UNL1       -0.0071
     20 C          63.3069   84.2115   14.2734 C.3     1  UNL1        0.0556
     21 C          63.1167   82.8751   13.6193 C.ar    1  UNL1       -0.0198
     22 C          63.8983   82.5248   12.3879 C.ar    1  UNL1       -0.0011
     23 C          63.7081   81.1884   11.7338 C.ar    1  UNL1        0.0363
     24 C          62.7363   80.2023   12.3111 C.ar    1  UNL1        0.1337
     25 O          62.5461   78.8659   11.6570 O.3     1  UNL1       -0.5055
     26 C          61.9547   80.5526   13.5426 C.ar    1  UNL1        0.0363
     27 C          62.1449   81.8890   14.1967 C.ar    1  UNL1       -0.0011
     28 H          63.0343   78.6471   10.8877 H       1  UNL1        0.2922
     29 C          60.9806   86.7633   10.3906 C.3     1  UNL1        0.1217
     30 C          60.4513   88.0690    9.8758 C.ar    1  UNL1        0.0135
     31 C          60.2588   89.2227   10.8149 C.ar    1  UNL1       -0.0012
     32 C          59.7295   90.5285   10.3003 C.ar    1  UNL1       -0.0002
     33 C          59.3929   90.6805    8.8465 C.ar    1  UNL1        0.0016
     34 C          59.5855   89.5268    7.9074 C.ar    1  UNL1        0.0214
     35 C          59.3428   89.3803    6.4344 C.ar    1  UNL1        0.0721
     36 C          59.7221   87.9840    6.0388 C.ar    1  UNL1        0.0805
     37 N          60.1991   87.2676    7.2672 N.ar    1  UNL1       -0.3241
     38 C          60.6767   85.8471    7.3298 C.3     1  UNL1        0.1305
     39 C          60.1147   88.2211    8.4221 C.ar    1  UNL1        0.0577
     40 C          58.8137   90.4435    5.5180 C.2     1  UNL1        0.2506
     41 O          57.3520   90.7800    5.5246 O.2     1  UNL1       -0.2699
     42 N          59.7465   91.1701    4.5949 N.am    1  UNL1       -0.2732
     43 C          61.2082   90.8335    4.5883 C.3     1  UNL1        0.1110
     44 C          62.1409   91.5602    3.6652 C.3     1  UNL1        0.0939
     45 N          61.6120   92.6234    2.7487 N.3     1  UNL1       -0.2686
     46 C          62.5447   93.3500    1.8257 C.3     1  UNL1        0.0897
     47 C          62.0156   94.4131    0.9093 C.3     1  UNL1        0.0897
     48 N          60.5538   94.7497    0.9159 N.3     1  UNL1       -0.2703
     49 C          59.6211   94.0230    1.8390 C.3     1  UNL1        0.0900
     50 C          60.1502   92.9599    2.7554 C.3     1  UNL1        0.0936
     51 C          59.2175   92.2333    3.6785 C.3     1  UNL1        0.1110
     52 C          60.0249   95.8128   -0.0005 C.3     1  UNL1        0.0722
     53 C          58.6104   95.7412   -0.4945 C.3     1  UNL1        0.0188
     54 C          64.8047   92.9636   12.1743 C.3     1  UNL1        0.1177
     55 C          65.8479   93.4032   11.1902 C.ar    1  UNL1       -0.0025
     56 C          66.8207   92.4067   10.6330 C.ar    1  UNL1       -0.0026
     57 C          67.8638   92.8463    9.6488 C.ar    1  UNL1       -0.0003
     58 C          67.9343   94.2825    9.2219 C.ar    1  UNL1       -0.0000
     59 C          66.9615   95.2792    9.7791 C.ar    1  UNL1       -0.0003
     60 C          65.9183   94.8395   10.7633 C.ar    1  UNL1       -0.0026
@<TRIPOS>BOND
     1    18    19    2
     2    19    17    1
     3    17     1    1
     4     1     2    1
     5     2     3    1
     6     3     4    2
     7     3     5   am
     8     5     6    1
     9     6    20    1
    10    20    21    1
    11    21    22   ar
    12    22    23   ar
    13    23    24   ar
    14    24    25    1
    15    24    26   ar
    16    26    27   ar
    17     6     7    1
    18     7     8    2
    19     7     9   am
    20     9    29    1
    21    29    30    1
    22    30    31   ar
    23    31    32   ar
    24    32    33   ar
    25    33    34   ar
    26    34    35   ar
    27    35    40    1
    28    40    41    2
    29    40    42   am
    30    42    43    1
    31    43    44    1
    32    44    45    1
    33    45    46    1
    34    46    47    1
    35    47    48    1
    36    48    52    1
    37    52    53    1
    38    48    49    1
    39    49    50    1
    40    50    51    1
    41    35    36   ar
    42    36    37   ar
    43    37    38    1
    44    37    39   ar
    45     9    10    1
    46    11    10    1
    47    11    12    1
    48    12    13   am
    49    13    14    2
    50    13    15   am
    51    15    54    1
    52    54    55    1
    53    55    56   ar
    54    56    57   ar
    55    57    58   ar
    56    58    59   ar
    57    59    60   ar
    58    12     1    1
    59    60    55   ar
    60    11     5    1
    61    27    21   ar
    62    39    30   ar
    63    39    34   ar
    64    51    42    1
    65    50    45    1
    66    25    28    1
    67    15    16    1
