@<TRIPOS>MOLECULE
*****
 37 41 0 0 0
SMALL
GASTEIGER

@<TRIPOS>ATOM
      1 C          66.7823   93.7451   12.3426 C.3     1  UNL1        0.0342
      2 C          66.5870   94.2036   10.9277 C.ar    1  UNL1        0.0151
      3 C          67.4773   95.2656   10.3538 C.ar    1  UNL1        0.0990
      4 N          67.2821   95.7241    8.9390 N.ar    1  UNL1       -0.2123
      5 C          66.2918   95.3289    7.8253 C.ar    1  UNL1        0.2207
      6 N          66.0851   94.5693    9.1021 N.ar    1  UNL1       -0.2139
      7 C          65.5014   93.6000   10.0868 C.ar    1  UNL1        0.0817
      8 C          64.6111   92.5379   10.6608 C.ar    1  UNL1        0.0172
      9 C          64.8063   92.0795   12.0756 C.ar    1  UNL1        0.0015
     10 C          63.9160   91.0175   12.6495 C.ar    1  UNL1       -0.0002
     11 C          62.8304   90.4139   11.8086 C.ar    1  UNL1       -0.0019
     12 C          62.6351   90.8723   10.3938 C.ar    1  UNL1        0.0073
     13 C          63.5255   91.9343    9.8199 C.ar    1  UNL1       -0.0004
     14 C          61.2785   90.0402    9.5163 C.3     1  UNL1        0.1691
     15 O          60.3957   89.7733    8.3334 O.3     1  UNL1       -0.3443
     16 C          59.8219   89.8751    6.9512 C.3     1  UNL1        0.1686
     17 C          59.6267   90.3335    5.5364 C.2     1  UNL1        0.0036
     18 C          59.8333   91.0932    4.2596 C.2     1  UNL1        0.0036
     19 C          60.4171   92.0625    3.2748 C.3     1  UNL1        0.1686
     20 O          61.3074   93.1245    2.7009 O.3     1  UNL1       -0.3442
     21 C          62.3970   94.1512    2.6071 C.3     1  UNL1        0.1721
     22 C          63.5543   95.0186    3.0045 C.ar    1  UNL1        0.0425
     23 C          64.6399   95.6222    3.8454 C.ar    1  UNL1        0.0158
     24 C          65.5228   95.8892    5.0283 C.ar    1  UNL1        0.0504
     25 C          65.8691   96.7535    3.7995 C.ar    1  UNL1        0.0178
     26 C          65.2954   96.8554    2.4172 C.ar    1  UNL1        0.0379
     27 C          64.1381   95.9880    2.0197 C.ar    1  UNL1        0.1370
     28 N          66.0965   95.7873    6.4105 N.pl3   1  UNL1       -0.2825
     29 H          66.8116   96.4612    6.3489 H       1  UNL1        0.1551
     30 O          63.5644   96.0898    0.6376 O.3     1  UNL1       -0.4742
     31 C          64.2476   95.4071   -0.5102 C.3     1  UNL1        0.2226
     32 C          63.8287   94.0258   -0.9181 C.3     1  UNL1        0.1200
     33 N          62.4475   93.7883   -1.4530 N.3     1  UNL1       -0.2696
     34 C          61.9191   94.2656   -2.7732 C.3     1  UNL1        0.0722
     35 C          60.4973   93.8041   -2.8976 C.3     1  UNL1        0.0188
     36 C          60.1469   93.0415   -1.6543 C.3     1  UNL1        0.0188
     37 C          61.3522   93.0318   -0.7615 C.3     1  UNL1        0.0722
@<TRIPOS>BOND
     1     1     2    1
     2     2     3   ar
     3     3     4   ar
     4     4     5   ar
     5     5     6   ar
     6     6     7   ar
     7     7     8    1
     8     8     9   ar
     9     9    10   ar
    10    10    11   ar
    11    11    12   ar
    12    12    13   ar
    13    12    14    1
    14    14    15    1
    15    15    16    1
    16    16    17    1
    17    17    18    2
    18    18    19    1
    19    19    20    1
    20    20    21    1
    21    21    22    1
    22    22    23   ar
    23    23    24   ar
    24    24    25   ar
    25    25    26   ar
    26    26    27   ar
    27    27    30    1
    28    30    31    1
    29    31    32    1
    30    32    33    1
    31    33    34    1
    32    34    35    1
    33    35    36    1
    34    36    37    1
    35    24    28    1
    36     7     2   ar
    37    13     8   ar
    38    27    22   ar
    39    37    33    1
    40    28     5    1
    41    28    29    1
@<TRIPOS>MOLECULE
*****
 37 41 0 0 0
SMALL
GASTEIGER

@<TRIPOS>ATOM
      1 C          59.7513   88.0307   10.0701 C.3     1  UNL1        0.0342
      2 C          59.9040   88.7632    8.7700 C.ar    1  UNL1        0.0151
      3 C          59.0076   88.4332    7.6135 C.ar    1  UNL1        0.0990
      4 N          59.1603   89.1657    6.3133 N.ar    1  UNL1       -0.2123
      5 C          60.1074   90.2834    5.8329 C.ar    1  UNL1        0.2207
      6 N          60.3481   89.8700    7.2546 N.ar    1  UNL1       -0.2139
      7 C          60.9531   89.8256    8.6265 C.ar    1  UNL1        0.0817
      8 C          61.8495   90.1556    9.7831 C.ar    1  UNL1        0.0172
      9 C          61.6968   89.4231   11.0831 C.ar    1  UNL1        0.0015
     10 C          62.5932   89.7531   12.2396 C.ar    1  UNL1       -0.0002
     11 C          63.6423   90.8155   12.0961 C.ar    1  UNL1       -0.0019
     12 C          63.7950   91.5480   10.7961 C.ar    1  UNL1        0.0073
     13 C          62.8986   91.2180    9.6395 C.ar    1  UNL1       -0.0004
     14 C          65.1109   92.8014   10.7915 C.3     1  UNL1        0.1691
     15 O          65.9499   93.8793   10.1715 O.3     1  UNL1       -0.3443
     16 C          66.4776   94.8426    9.1500 C.3     1  UNL1        0.1686
     17 C          66.6302   95.5751    7.8499 C.2     1  UNL1        0.0036
     18 C          66.3896   95.9885    6.4282 C.2     1  UNL1        0.0036
     19 C          65.7845   96.0328    5.0563 C.3     1  UNL1        0.1686
     20 O          64.8882   95.7028    3.8998 O.3     1  UNL1       -0.3442
     21 C          63.8085   95.0383    3.0981 C.3     1  UNL1        0.1721
     22 C          62.6758   94.1194    2.7479 C.ar    1  UNL1        0.0425
     23 C          61.6268   93.0570    2.8914 C.ar    1  UNL1        0.0158
     24 C          60.7878   91.9792    3.5113 C.ar    1  UNL1        0.0504
     25 C          60.4105   92.2816    2.0473 C.ar    1  UNL1        0.0178
     26 C          60.9381   93.2449    1.0257 C.ar    1  UNL1        0.0379
     27 C          62.0708   94.1638    1.3759 C.ar    1  UNL1        0.1370
     28 N          60.2601   91.0159    4.5329 N.pl3   1  UNL1       -0.2825
     29 H          59.5515   90.5797    4.0067 H       1  UNL1        0.1551
     30 O          62.5985   95.1271    0.3544 O.3     1  UNL1       -0.4742
     31 C          63.5280   94.6461   -0.7203 C.3     1  UNL1        0.2226
     32 C          63.3395   95.1054   -2.1357 C.3     1  UNL1        0.1200
     33 N          63.9037   94.2986   -3.2674 N.3     1  UNL1       -0.2696
     34 C          64.6327   94.8424   -4.4603 C.3     1  UNL1        0.0722
     35 C          65.0175   93.6861   -5.3350 C.3     1  UNL1        0.0188
     36 C          64.5263   92.4278   -4.6828 C.3     1  UNL1        0.0188
     37 C          63.8380   92.8063   -3.4049 C.3     1  UNL1        0.0722
@<TRIPOS>BOND
     1     1     2    1
     2     2     3   ar
     3     3     4   ar
     4     4     5   ar
     5     5     6   ar
     6     6     7   ar
     7     7     8    1
     8     8     9   ar
     9     9    10   ar
    10    10    11   ar
    11    11    12   ar
    12    12    13   ar
    13    12    14    1
    14    14    15    1
    15    15    16    1
    16    16    17    1
    17    17    18    2
    18    18    19    1
    19    19    20    1
    20    20    21    1
    21    21    22    1
    22    22    23   ar
    23    23    24   ar
    24    24    25   ar
    25    25    26   ar
    26    26    27   ar
    27    27    30    1
    28    30    31    1
    29    31    32    1
    30    32    33    1
    31    33    34    1
    32    34    35    1
    33    35    36    1
    34    36    37    1
    35    24    28    1
    36     7     2   ar
    37    13     8   ar
    38    27    22   ar
    39    37    33    1
    40    28     5    1
    41    28    29    1
@<TRIPOS>MOLECULE
*****
 37 41 0 0 0
SMALL
GASTEIGER

@<TRIPOS>ATOM
      1 C          60.1250   88.1402   10.7025 C.3     1  UNL1        0.0342
      2 C          60.1383   88.7945    9.3528 C.ar    1  UNL1        0.0151
      3 C          59.1523   88.3716    8.3045 C.ar    1  UNL1        0.0990
      4 N          59.1657   89.0259    6.9548 N.ar    1  UNL1       -0.2123
      5 C          60.0316   90.1349    6.3245 C.ar    1  UNL1        0.2207
      6 N          60.4111   89.8162    7.7403 N.ar    1  UNL1       -0.2139
      7 C          61.1376   89.8718    9.0514 C.ar    1  UNL1        0.0817
      8 C          62.1237   90.2948   10.0997 C.ar    1  UNL1        0.0172
      9 C          62.1103   89.6405   11.4494 C.ar    1  UNL1        0.0015
     10 C          63.0963   90.0635   12.4977 C.ar    1  UNL1       -0.0002
     11 C          64.0956   91.1407   12.1962 C.ar    1  UNL1       -0.0019
     12 C          64.1089   91.7950   10.8466 C.ar    1  UNL1        0.0073
     13 C          63.1230   91.3720    9.7983 C.ar    1  UNL1       -0.0004
     14 C          65.3806   93.0780   10.6476 C.3     1  UNL1        0.1691
     15 O          66.1275   94.1360    9.8908 O.3     1  UNL1       -0.3443
     16 C          66.5321   95.0471    8.7700 C.3     1  UNL1        0.1686
     17 C          66.5455   95.7014    7.4203 C.2     1  UNL1        0.0036
     18 C          66.1660   96.0200    6.0045 C.2     1  UNL1        0.0036
     19 C          65.4394   95.9644    4.6934 C.3     1  UNL1        0.1686
     20 O          64.4534   95.5415    3.6451 O.3     1  UNL1       -0.3442
     21 C          63.3269   94.8021    2.9861 C.3     1  UNL1        0.1721
     22 C          62.1958   93.8355    2.7958 C.ar    1  UNL1        0.0425
     23 C          61.1965   92.7582    3.0972 C.ar    1  UNL1        0.0158
     24 C          60.4495   91.7003    3.8539 C.ar    1  UNL1        0.0504
     25 C          59.9335   91.9022    2.4152 C.ar    1  UNL1        0.0178
     26 C          60.3381   92.8133    1.2943 C.ar    1  UNL1        0.0379
     27 C          61.4692   93.7799    1.4846 C.ar    1  UNL1        0.1370
     28 N          60.0449   90.7891    4.9748 N.pl3   1  UNL1       -0.2825
     29 H          59.3056   90.3039    4.5422 H       1  UNL1        0.1551
     30 O          61.8738   94.6910    0.3638 O.3     1  UNL1       -0.4742
     31 C          61.9284   94.1716   -1.0424 C.3     1  UNL1        0.2226
     32 C          60.8446   94.5283   -2.0161 C.3     1  UNL1        0.1200
     33 N          59.4206   94.1604   -1.7211 N.3     1  UNL1       -0.2696
     34 C          58.7756   92.8358   -2.0030 C.3     1  UNL1        0.0722
     35 C          57.3480   92.9094   -1.5485 C.3     1  UNL1        0.0188
     36 C          57.1106   94.2794   -0.9858 C.3     1  UNL1        0.0188
     37 C          58.3915   95.0526   -1.0925 C.3     1  UNL1        0.0722
@<TRIPOS>BOND
     1     1     2    1
     2     2     3   ar
     3     3     4   ar
     4     4     5   ar
     5     5     6   ar
     6     6     7   ar
     7     7     8    1
     8     8     9   ar
     9     9    10   ar
    10    10    11   ar
    11    11    12   ar
    12    12    13   ar
    13    12    14    1
    14    14    15    1
    15    15    16    1
    16    16    17    1
    17    17    18    2
    18    18    19    1
    19    19    20    1
    20    20    21    1
    21    21    22    1
    22    22    23   ar
    23    23    24   ar
    24    24    25   ar
    25    25    26   ar
    26    26    27   ar
    27    27    30    1
    28    30    31    1
    29    31    32    1
    30    32    33    1
    31    33    34    1
    32    34    35    1
    33    35    36    1
    34    36    37    1
    35    24    28    1
    36     7     2   ar
    37    13     8   ar
    38    27    22   ar
    39    37    33    1
    40    28     5    1
    41    28    29    1
@<TRIPOS>MOLECULE
*****
 37 41 0 0 0
SMALL
GASTEIGER

@<TRIPOS>ATOM
      1 C          62.1785   94.7401    0.1049 C.3     1  UNL1        0.0342
      2 C          61.7449   93.8510    1.2326 C.ar    1  UNL1        0.0151
      3 C          60.6217   92.8775    1.0309 C.ar    1  UNL1        0.0990
      4 N          60.1881   91.9884    2.1586 N.ar    1  UNL1       -0.2123
      5 C          60.6643   91.8174    3.6149 C.ar    1  UNL1        0.2207
      6 N          61.4296   92.8618    2.8576 N.ar    1  UNL1       -0.2139
      7 C          62.4345   93.9354    2.5620 C.ar    1  UNL1        0.0817
      8 C          63.5578   94.9090    2.7636 C.ar    1  UNL1        0.0172
      9 C          63.9913   95.7980    1.6360 C.ar    1  UNL1        0.0015
     10 C          65.1145   96.7715    1.8377 C.ar    1  UNL1       -0.0002
     11 C          65.8041   96.8560    3.1671 C.ar    1  UNL1       -0.0019
     12 C          65.3706   95.9670    4.2947 C.ar    1  UNL1        0.0073
     13 C          64.2474   94.9935    4.0930 C.ar    1  UNL1       -0.0004
     14 C          66.3089   96.1966    5.8341 C.3     1  UNL1        0.1691
     15 O          66.6495   95.9081    7.2661 O.3     1  UNL1       -0.3443
     16 C          66.6002   95.2817    8.6281 C.3     1  UNL1        0.1686
     17 C          66.1666   94.3926    9.7558 C.2     1  UNL1        0.0036
     18 C          65.4012   93.3482   10.5132 C.2     1  UNL1        0.0036
     19 C          64.3963   92.2746   10.8088 C.3     1  UNL1        0.1686
     20 O          63.2732   91.3011   10.6071 O.3     1  UNL1       -0.3442
     21 C          62.1671   90.5451    9.9323 C.3     1  UNL1        0.1721
     22 C          61.2117   90.0980    8.8660 C.ar    1  UNL1        0.0425
     23 C          60.5220   90.0135    7.5366 C.ar    1  UNL1        0.0158
     24 C          60.1813   90.3019    6.1046 C.ar    1  UNL1        0.0504
     25 C          59.3007   89.2036    6.7333 C.ar    1  UNL1        0.0178
     26 C          59.2513   88.5771    8.0953 C.ar    1  UNL1        0.0379
     27 C          60.2067   89.0242    9.1616 C.ar    1  UNL1        0.1370
     28 N          60.2308   90.9284    4.7426 N.pl3   1  UNL1       -0.2825
     29 H          59.5048   90.4323    4.2997 H       1  UNL1        0.1551
     30 O          60.1573   88.3978   10.5236 O.3     1  UNL1       -0.4742
     31 C          60.8261   87.0772   10.7664 C.3     1  UNL1        0.2226
     32 C          62.2807   87.0287   11.1296 C.3     1  UNL1        0.1200
     33 N          62.7725   86.0171   12.1218 N.3     1  UNL1       -0.2696
     34 C          62.6305   84.5282   12.0072 C.3     1  UNL1        0.0722
     35 C          63.2630   83.9077   13.2175 C.3     1  UNL1        0.0188
     36 C          63.7960   85.0130   14.0802 C.3     1  UNL1        0.0188
     37 C          63.4928   86.3166   13.4031 C.3     1  UNL1        0.0722
@<TRIPOS>BOND
     1     1     2    1
     2     2     3   ar
     3     3     4   ar
     4     4     5   ar
     5     5     6   ar
     6     6     7   ar
     7     7     8    1
     8     8     9   ar
     9     9    10   ar
    10    10    11   ar
    11    11    12   ar
    12    12    13   ar
    13    12    14    1
    14    14    15    1
    15    15    16    1
    16    16    17    1
    17    17    18    2
    18    18    19    1
    19    19    20    1
    20    20    21    1
    21    21    22    1
    22    22    23   ar
    23    23    24   ar
    24    24    25   ar
    25    25    26   ar
    26    26    27   ar
    27    27    30    1
    28    30    31    1
    29    31    32    1
    30    32    33    1
    31    33    34    1
    32    34    35    1
    33    35    36    1
    34    36    37    1
    35    24    28    1
    36     7     2   ar
    37    13     8   ar
    38    27    22   ar
    39    37    33    1
    40    28     5    1
    41    28    29    1
@<TRIPOS>MOLECULE
*****
 37 41 0 0 0
SMALL
GASTEIGER

@<TRIPOS>ATOM
      1 C          71.7958   82.6608    9.4124 C.3     1  UNL1        0.0342
      2 C          71.8886   81.4468   10.2886 C.ar    1  UNL1        0.0151
      3 C          71.7093   81.5771   11.7721 C.ar    1  UNL1        0.0990
      4 N          71.8021   80.3630   12.6483 N.ar    1  UNL1       -0.2123
      5 C          72.0623   78.8702   12.3645 C.ar    1  UNL1        0.2207
      6 N          72.0642   79.7198   11.1283 N.ar    1  UNL1       -0.2139
      7 C          72.1606   80.1025    9.6812 C.ar    1  UNL1        0.0817
      8 C          72.3399   79.9723    8.1976 C.ar    1  UNL1        0.0172
      9 C          72.2471   81.1863    7.3215 C.ar    1  UNL1        0.0015
     10 C          72.4264   81.0560    5.8380 C.ar    1  UNL1       -0.0002
     11 C          72.6984   79.7118    5.2306 C.ar    1  UNL1       -0.0019
     12 C          72.7912   78.4978    6.1066 C.ar    1  UNL1        0.0073
     13 C          72.6120   78.6281    7.5902 C.ar    1  UNL1       -0.0004
     14 C          73.1252   76.9513    5.2124 C.3     1  UNL1        0.1691
     15 O          73.3638   75.4741    5.1076 O.3     1  UNL1       -0.3443
     16 C          73.5401   74.0422    5.5179 C.3     1  UNL1        0.1686
     17 C          73.6329   72.8281    6.3941 C.2     1  UNL1        0.0036
     18 C          73.6310   71.9785    7.6303 C.2     1  UNL1        0.0036
     19 C          73.5346   71.5958    9.0774 C.3     1  UNL1        0.1686
     20 O          73.3553   71.7260   10.5609 O.3     1  UNL1       -0.3442
     21 C          73.1148   72.3536   11.9020 C.3     1  UNL1        0.1721
     22 C          72.8421   73.4028   12.9387 C.ar    1  UNL1        0.0425
     23 C          72.5700   74.7470   13.5461 C.ar    1  UNL1        0.0158
     24 C          72.3315   76.2242   13.6509 C.ar    1  UNL1        0.0504
     25 C          72.2966   75.5012   15.0122 C.ar    1  UNL1        0.0178
     26 C          72.4730   74.0692   15.4226 C.ar    1  UNL1        0.0379
     27 C          72.7457   73.0200   14.3859 C.ar    1  UNL1        0.1370
     28 N          72.1551   77.6562   13.2405 N.pl3   1  UNL1       -0.2825
     29 H          71.9973   78.0681   14.1207 H       1  UNL1        0.1551
     30 O          72.9220   71.5880   14.7962 O.3     1  UNL1       -0.4742
     31 C          72.4711   71.1359   16.1536 C.3     1  UNL1        0.2226
     32 C          73.2874   71.4734   17.3659 C.3     1  UNL1        0.1200
     33 N          72.7281   72.3868   18.4160 N.3     1  UNL1       -0.2696
     34 C          71.2848   72.7607   18.5816 C.3     1  UNL1        0.0722
     35 C          71.1787   73.6918   19.7529 C.3     1  UNL1        0.0188
     36 C          72.5562   73.8933   20.3112 C.3     1  UNL1        0.0188
     37 C          73.5138   73.0869   19.4851 C.3     1  UNL1        0.0722
@<TRIPOS>BOND
     1     1     2    1
     2     2     3   ar
     3     3     4   ar
     4     4     5   ar
     5     5     6   ar
     6     6     7   ar
     7     7     8    1
     8     8     9   ar
     9     9    10   ar
    10    10    11   ar
    11    11    12   ar
    12    12    13   ar
    13    12    14    1
    14    14    15    1
    15    15    16    1
    16    16    17    1
    17    17    18    2
    18    18    19    1
    19    19    20    1
    20    20    21    1
    21    21    22    1
    22    22    23   ar
    23    23    24   ar
    24    24    25   ar
    25    25    26   ar
    26    26    27   ar
    27    27    30    1
    28    30    31    1
    29    31    32    1
    30    32    33    1
    31    33    34    1
    32    34    35    1
    33    35    36    1
    34    36    37    1
    35    24    28    1
    36     7     2   ar
    37    13     8   ar
    38    27    22   ar
    39    37    33    1
    40    28     5    1
    41    28    29    1
