@<TRIPOS>MOLECULE
*****
 31 33 0 0 0
SMALL
GASTEIGER

@<TRIPOS>ATOM
      1 C          61.1812   88.6635   11.3703 C.2     1  UNL1        0.2430
      2 O          59.9156   87.8885   11.5885 O.2     1  UNL1       -0.2732
      3 N          62.4135   87.9641   10.8781 N.am    1  UNL1       -0.2972
      4 H          63.2442   88.4728   10.7350 H       1  UNL1        0.1500
      5 C          61.2145   90.1379   11.6444 C.3     1  UNL1        0.1759
      6 C          63.6131   91.1120   11.8634 C.2     1  UNL1        0.2462
      7 O          63.8239   90.9240   10.3903 O.2     1  UNL1       -0.2701
      8 N          62.3084   90.7189   12.4905 N.am    1  UNL1       -0.2931
      9 H          62.1700   90.8423   13.4574 H       1  UNL1        0.1502
     10 C          66.8947   92.8550   14.4016 C.ar    1  UNL1        0.0685
     11 C          66.5542   93.4815   13.0820 C.ar    1  UNL1        0.0104
     12 C          65.4603   92.9005   12.2359 C.ar    1  UNL1        0.0052
     13 C          64.7069   91.6930   12.7095 C.ar    1  UNL1        0.0534
     14 C          65.0475   91.0665   14.0291 C.ar    1  UNL1        0.0052
     15 C          66.1413   91.6475   14.8752 C.ar    1  UNL1        0.0104
     16 N          69.0825   94.0171   16.0937 N.1     1  UNL1       -0.1908
     17 C          67.9886   93.4360   15.2477 C.1     1  UNL1        0.1004
     18 C          62.3802   86.4897   10.6041 C.3     1  UNL1        0.1169
     19 C          62.7260   85.5166   11.6920 C.ar    1  UNL1       -0.0003
     20 C          63.3262   86.0089   12.9756 C.ar    1  UNL1       -0.0015
     21 C          63.6720   85.0358   14.0635 C.ar    1  UNL1        0.0111
     22 C          63.4177   83.5706   13.8678 C.ar    1  UNL1        0.0577
     23 CL         63.7635   82.5975   14.9558 Cl      1  UNL1       -0.0822
     24 C          62.8175   83.0784   12.5843 C.ar    1  UNL1        0.0111
     25 C          62.4717   84.0514   11.4964 C.ar    1  UNL1       -0.0015
     26 C          62.0011   85.9884    9.2421 C.ar    1  UNL1       -0.0003
     27 C          60.6023   86.1792    8.7352 C.ar    1  UNL1       -0.0024
     28 C          60.2232   85.6779    7.3732 C.ar    1  UNL1       -0.0003
     29 C          61.2430   84.9858    6.5182 C.ar    1  UNL1       -0.0000
     30 C          62.6418   84.7950    7.0250 C.ar    1  UNL1       -0.0003
     31 C          63.0208   85.2963    8.3870 C.ar    1  UNL1       -0.0024
@<TRIPOS>BOND
     1    16    17    3
     2    17    10    1
     3    10    11   ar
     4    11    12   ar
     5    12    13   ar
     6    13     6    1
     7     6     7    2
     8     6     8   am
     9     8     5    1
    10     5     1    1
    11     1     2    2
    12     1     3   am
    13     3    18    1
    14    18    26    1
    15    26    27   ar
    16    27    28   ar
    17    28    29   ar
    18    29    30   ar
    19    30    31   ar
    20    18    19    1
    21    19    20   ar
    22    20    21   ar
    23    21    22   ar
    24    22    23    1
    25    22    24   ar
    26    24    25   ar
    27    13    14   ar
    28    14    15   ar
    29    15    10   ar
    30    31    26   ar
    31    25    19   ar
    32     8     9    1
    33     3     4    1
@<TRIPOS>MOLECULE
*****
 31 33 0 0 0
SMALL
GASTEIGER

@<TRIPOS>ATOM
      1 C          61.2659   88.8664   11.2902 C.2     1  UNL1        0.2430
      2 O          60.0286   88.1005   11.6540 O.2     1  UNL1       -0.2732
      3 N          62.4596   88.1448   10.7386 N.am    1  UNL1       -0.2972
      4 H          63.2717   88.6475   10.4998 H       1  UNL1        0.1500
      5 C          61.3095   90.3540   11.4780 C.3     1  UNL1        0.1759
      6 C          63.0704   90.7128   13.3543 C.2     1  UNL1        0.2462
      7 O          62.3236   89.7580   14.2377 O.2     1  UNL1       -0.2701
      8 N          62.5634   91.0108   11.9744 N.am    1  UNL1       -0.2931
      9 H          63.0536   91.6375   11.3946 H       1  UNL1        0.1502
     10 C          66.8321   92.6832   14.8435 C.ar    1  UNL1        0.0685
     11 C          65.8827   92.0478   15.8157 C.ar    1  UNL1        0.0104
     12 C          64.6289   91.3911   15.3193 C.ar    1  UNL1        0.0052
     13 C          64.3243   91.3696   13.8507 C.ar    1  UNL1        0.0534
     14 C          65.2736   92.0049   12.8786 C.ar    1  UNL1        0.0052
     15 C          66.5275   92.6617   13.3750 C.ar    1  UNL1        0.0104
     16 N          69.3398   93.9967   15.8364 N.1     1  UNL1       -0.1908
     17 C          68.0859   93.3399   15.3400 C.1     1  UNL1        0.1004
     18 C          62.4160   86.6573   10.5508 C.3     1  UNL1        0.1169
     19 C          62.7639   85.7468   11.6910 C.ar    1  UNL1       -0.0003
     20 C          62.4692   84.2791   11.5956 C.ar    1  UNL1       -0.0015
     21 C          62.8171   83.3687   12.7358 C.ar    1  UNL1        0.0111
     22 C          63.4597   83.9259   13.9713 C.ar    1  UNL1        0.0577
     23 CL         63.8076   83.0154   15.1115 Cl      1  UNL1       -0.0822
     24 C          63.7544   85.3936   14.0667 C.ar    1  UNL1        0.0111
     25 C          63.4065   86.3040   12.9265 C.ar    1  UNL1       -0.0015
     26 C          62.0245   86.0801    9.2228 C.ar    1  UNL1       -0.0003
     27 C          63.0377   85.3448    8.3965 C.ar    1  UNL1       -0.0024
     28 C          62.6462   84.7676    7.0685 C.ar    1  UNL1       -0.0003
     29 C          61.2414   84.9258    6.5667 C.ar    1  UNL1       -0.0000
     30 C          60.2283   85.6612    7.3930 C.ar    1  UNL1       -0.0003
     31 C          60.6198   86.2383    8.7210 C.ar    1  UNL1       -0.0024
@<TRIPOS>BOND
     1    16    17    3
     2    17    10    1
     3    10    11   ar
     4    11    12   ar
     5    12    13   ar
     6    13     6    1
     7     6     7    2
     8     6     8   am
     9     8     5    1
    10     5     1    1
    11     1     2    2
    12     1     3   am
    13     3    18    1
    14    18    26    1
    15    26    27   ar
    16    27    28   ar
    17    28    29   ar
    18    29    30   ar
    19    30    31   ar
    20    18    19    1
    21    19    20   ar
    22    20    21   ar
    23    21    22   ar
    24    22    23    1
    25    22    24   ar
    26    24    25   ar
    27    13    14   ar
    28    14    15   ar
    29    15    10   ar
    30    31    26   ar
    31    25    19   ar
    32     8     9    1
    33     3     4    1
@<TRIPOS>MOLECULE
*****
 31 33 0 0 0
SMALL
GASTEIGER

@<TRIPOS>ATOM
      1 C          61.1885   88.5154   11.4748 C.2     1  UNL1        0.2430
      2 O          59.9150   87.7269   11.5545 O.2     1  UNL1       -0.2732
      3 N          62.4731   87.8308   11.1124 N.am    1  UNL1       -0.2972
      4 H          63.3089   88.3483   11.0601 H       1  UNL1        0.1500
      5 C          61.1776   89.9885   11.7576 C.3     1  UNL1        0.1759
      6 C          63.5521   91.0266   11.9413 C.2     1  UNL1        0.2462
      7 O          63.7480   90.8396   10.4660 O.2     1  UNL1       -0.2701
      8 N          62.2669   90.6011   12.5871 N.am    1  UNL1       -0.2931
      9 H          62.1384   90.7238   13.5554 H       1  UNL1        0.1502
     10 C          66.8201   92.8643   14.4298 C.ar    1  UNL1        0.0685
     11 C          66.0253   91.7119   14.9684 C.ar    1  UNL1        0.0104
     12 C          64.9360   91.0993   14.1389 C.ar    1  UNL1        0.0052
     13 C          64.6415   91.6392   12.7708 C.ar    1  UNL1        0.0534
     14 C          65.4363   92.7916   12.2322 C.ar    1  UNL1        0.0052
     15 C          66.5256   93.4042   13.0617 C.ar    1  UNL1        0.0104
     16 N          68.9988   94.0894   16.0889 N.1     1  UNL1       -0.1908
     17 C          67.9095   93.4769   15.2594 C.1     1  UNL1        0.1004
     18 C          62.4841   86.3578   10.8296 C.3     1  UNL1        0.1169
     19 C          62.1949   85.8576    9.4453 C.ar    1  UNL1       -0.0003
     20 C          60.8436   86.0816    8.8340 C.ar    1  UNL1       -0.0015
     21 C          60.5544   85.5815    7.4497 C.ar    1  UNL1        0.0111
     22 C          61.6165   84.8573    6.6768 C.ar    1  UNL1        0.0577
     23 CL         61.3273   84.3572    5.2925 Cl      1  UNL1       -0.0822
     24 C          62.9678   84.6333    7.2881 C.ar    1  UNL1        0.0111
     25 C          63.2570   85.1335    8.6724 C.ar    1  UNL1       -0.0015
     26 C          62.7843   85.3849   11.9311 C.ar    1  UNL1       -0.0003
     27 C          62.4601   83.9307   11.7564 C.ar    1  UNL1       -0.0024
     28 C          62.7602   82.9578   12.8579 C.ar    1  UNL1       -0.0003
     29 C          63.3846   83.4390   14.1341 C.ar    1  UNL1       -0.0000
     30 C          63.7088   84.8931   14.3088 C.ar    1  UNL1       -0.0003
     31 C          63.4086   85.8660   13.2073 C.ar    1  UNL1       -0.0024
@<TRIPOS>BOND
     1    16    17    3
     2    17    10    1
     3    10    11   ar
     4    11    12   ar
     5    12    13   ar
     6    13     6    1
     7     6     7    2
     8     6     8   am
     9     8     5    1
    10     5     1    1
    11     1     2    2
    12     1     3   am
    13     3    18    1
    14    18    26    1
    15    26    27   ar
    16    27    28   ar
    17    28    29   ar
    18    29    30   ar
    19    30    31   ar
    20    18    19    1
    21    19    20   ar
    22    20    21   ar
    23    21    22   ar
    24    22    23    1
    25    22    24   ar
    26    24    25   ar
    27    13    14   ar
    28    14    15   ar
    29    15    10   ar
    30    31    26   ar
    31    25    19   ar
    32     8     9    1
    33     3     4    1
@<TRIPOS>MOLECULE
*****
 31 33 0 0 0
SMALL
GASTEIGER

@<TRIPOS>ATOM
      1 C          63.5429   88.9596   15.9778 C.2     1  UNL1        0.2430
      2 O          62.7748   90.2210   16.2403 O.2     1  UNL1       -0.2732
      3 N          64.5927   88.9299   14.9069 N.am    1  UNL1       -0.2972
      4 H          65.0969   88.1020   14.7346 H       1  UNL1        0.1500
      5 C          63.2612   87.7279   16.7863 C.3     1  UNL1        0.1759
      6 C          64.0307   85.7139   15.3366 C.2     1  UNL1        0.2462
      7 O          65.4129   86.2922   15.2669 O.2     1  UNL1       -0.2701
      8 N          62.9548   86.4317   16.0963 N.am    1  UNL1       -0.2931
      9 H          62.0476   86.0522   16.1421 H       1  UNL1        0.1502
     10 C          63.1116   81.8254   13.2667 C.ar    1  UNL1        0.0685
     11 C          62.2571   82.2867   14.4099 C.ar    1  UNL1        0.0104
     12 C          62.5635   83.5829   15.0999 C.ar    1  UNL1        0.0052
     13 C          63.7243   84.4177   14.6466 C.ar    1  UNL1        0.0534
     14 C          64.5788   83.9564   13.5034 C.ar    1  UNL1        0.0052
     15 C          64.2724   82.6602   12.8134 C.ar    1  UNL1        0.0104
     16 N          62.4988   79.2330   11.8867 N.1     1  UNL1       -0.1908
     17 C          62.8052   80.5292   12.5767 C.1     1  UNL1        0.1004
     18 C          64.8745   90.1615   14.0984 C.3     1  UNL1        0.1169
     19 C          65.8799   91.1635   14.5836 C.ar    1  UNL1       -0.0003
     20 C          65.5456   92.0638   15.7359 C.ar    1  UNL1       -0.0015
     21 C          66.5509   93.0657   16.2211 C.ar    1  UNL1        0.0111
     22 C          67.8905   93.1673   15.5540 C.ar    1  UNL1        0.0577
     23 CL         68.8959   94.1693   16.0392 Cl      1  UNL1       -0.0822
     24 C          68.2248   92.2670   14.4018 C.ar    1  UNL1        0.0111
     25 C          67.2195   91.2651   13.9165 C.ar    1  UNL1       -0.0015
     26 C          64.1509   90.3913   12.8047 C.ar    1  UNL1       -0.0003
     27 C          64.4681   91.5980   11.9720 C.ar    1  UNL1       -0.0024
     28 C          63.7444   91.8278   10.6783 C.ar    1  UNL1       -0.0003
     29 C          62.7037   90.8508   10.2174 C.ar    1  UNL1       -0.0000
     30 C          62.3865   89.6442   11.0501 C.ar    1  UNL1       -0.0003
     31 C          63.1101   89.4144   12.3437 C.ar    1  UNL1       -0.0024
@<TRIPOS>BOND
     1    16    17    3
     2    17    10    1
     3    10    11   ar
     4    11    12   ar
     5    12    13   ar
     6    13     6    1
     7     6     7    2
     8     6     8   am
     9     8     5    1
    10     5     1    1
    11     1     2    2
    12     1     3   am
    13     3    18    1
    14    18    26    1
    15    26    27   ar
    16    27    28   ar
    17    28    29   ar
    18    29    30   ar
    19    30    31   ar
    20    18    19    1
    21    19    20   ar
    22    20    21   ar
    23    21    22   ar
    24    22    23    1
    25    22    24   ar
    26    24    25   ar
    27    13    14   ar
    28    14    15   ar
    29    15    10   ar
    30    31    26   ar
    31    25    19   ar
    32     8     9    1
    33     3     4    1
@<TRIPOS>MOLECULE
*****
 31 33 0 0 0
SMALL
GASTEIGER

@<TRIPOS>ATOM
      1 C          62.1713   88.6121   10.9529 C.2     1  UNL1        0.2430
      2 O          62.8177   88.4693    9.6069 O.2     1  UNL1       -0.2732
      3 N          61.8791   87.3938   11.7777 N.am    1  UNL1       -0.2972
      4 H          61.4548   87.4875   12.6611 H       1  UNL1        0.1500
      5 C          61.8170   89.9733   11.4742 C.3     1  UNL1        0.1759
      6 C          63.7051   90.3343   13.2219 C.2     1  UNL1        0.2462
      7 O          63.4715   88.9535   13.7594 O.2     1  UNL1       -0.2701
      8 N          62.8778   90.8442   12.0793 N.am    1  UNL1       -0.2931
      9 H          63.0311   91.7504   11.7266 H       1  UNL1        0.1502
     10 C          66.8876   92.9469   15.0374 C.ar    1  UNL1        0.0685
     11 C          66.8218   92.7691   13.5494 C.ar    1  UNL1        0.0104
     12 C          65.7610   91.8982   12.9443 C.ar    1  UNL1        0.0052
     13 C          64.7659   91.2051   13.8271 C.ar    1  UNL1        0.0534
     14 C          64.8317   91.3829   15.3150 C.ar    1  UNL1        0.0052
     15 C          65.8925   92.2538   15.9202 C.ar    1  UNL1        0.0104
     16 N          69.0093   94.6886   16.2477 N.1     1  UNL1       -0.1908
     17 C          67.9485   93.8177   15.6425 C.1     1  UNL1        0.1004
     18 C          62.2334   86.0326   11.2565 C.3     1  UNL1        0.1169
     19 C          62.0243   85.7066    9.8073 C.ar    1  UNL1       -0.0003
     20 C          60.7174   86.0312    9.1465 C.ar    1  UNL1       -0.0015
     21 C          60.5083   85.7052    7.6974 C.ar    1  UNL1        0.0111
     22 C          61.6062   85.0546    6.9091 C.ar    1  UNL1        0.0577
     23 CL         61.3971   84.7285    5.4599 Cl      1  UNL1       -0.0822
     24 C          62.9131   84.7300    7.5699 C.ar    1  UNL1        0.0111
     25 C          63.1221   85.0560    9.0190 C.ar    1  UNL1       -0.0015
     26 C          62.7967   84.9974   12.1844 C.ar    1  UNL1       -0.0003
     27 C          63.5821   85.4194   13.3908 C.ar    1  UNL1       -0.0024
     28 C          64.1455   84.3842   14.3187 C.ar    1  UNL1       -0.0003
     29 C          63.9234   82.9270   14.0403 C.ar    1  UNL1       -0.0000
     30 C          63.1380   82.5051   12.8340 C.ar    1  UNL1       -0.0003
     31 C          62.5747   83.5403   11.9061 C.ar    1  UNL1       -0.0024
@<TRIPOS>BOND
     1    16    17    3
     2    17    10    1
     3    10    11   ar
     4    11    12   ar
     5    12    13   ar
     6    13     6    1
     7     6     7    2
     8     6     8   am
     9     8     5    1
    10     5     1    1
    11     1     2    2
    12     1     3   am
    13     3    18    1
    14    18    26    1
    15    26    27   ar
    16    27    28   ar
    17    28    29   ar
    18    29    30   ar
    19    30    31   ar
    20    18    19    1
    21    19    20   ar
    22    20    21   ar
    23    21    22   ar
    24    22    23    1
    25    22    24   ar
    26    24    25   ar
    27    13    14   ar
    28    14    15   ar
    29    15    10   ar
    30    31    26   ar
    31    25    19   ar
    32     8     9    1
    33     3     4    1
@<TRIPOS>MOLECULE
*****
 31 33 0 0 0
SMALL
GASTEIGER

@<TRIPOS>ATOM
      1 C          64.2817   90.8339   13.1134 C.2     1  UNL1        0.2430
      2 O          65.2756   90.4146   14.1556 O.2     1  UNL1       -0.2732
      3 N          64.5592   92.0287   12.2501 N.am    1  UNL1       -0.2972
      4 H          63.9068   92.3039   11.5660 H       1  UNL1        0.1500
      5 C          63.0102   90.0583   12.9344 C.3     1  UNL1        0.1759
      6 C          61.5815   88.8657   11.1215 C.2     1  UNL1        0.2462
      7 O          60.3875   89.6772   11.5288 O.2     1  UNL1       -0.2701
      8 N          62.8929   89.0563   11.8243 N.am    1  UNL1       -0.2931
      9 H          63.6766   88.5237   11.5570 H       1  UNL1        0.1502
     10 C          61.2295   85.8598    7.7913 C.ar    1  UNL1        0.0685
     11 C          60.1292   86.8520    8.0255 C.ar    1  UNL1        0.0104
     12 C          60.2465   87.8540    9.1356 C.ar    1  UNL1        0.0052
     13 C          61.4642   87.8638   10.0115 C.ar    1  UNL1        0.0534
     14 C          62.5645   86.8716    9.7772 C.ar    1  UNL1        0.0052
     15 C          62.4471   85.8696    8.6672 C.ar    1  UNL1        0.0104
     16 N          60.9947   83.8558    5.5711 N.1     1  UNL1       -0.1908
     17 C          61.1121   84.8578    6.6812 C.1     1  UNL1        0.1004
     18 C          65.8305   92.8043   12.4290 C.3     1  UNL1        0.1169
     19 C          66.2809   93.7618   11.3658 C.ar    1  UNL1       -0.0003
     20 C          66.1173   95.2390   11.5686 C.ar    1  UNL1       -0.0015
     21 C          66.5676   96.1965   10.5055 C.ar    1  UNL1        0.0111
     22 C          67.1816   95.6769    9.2395 C.ar    1  UNL1        0.0577
     23 CL         67.6320   96.6344    8.1763 Cl      1  UNL1       -0.0822
     24 C          67.3453   94.1997    9.0366 C.ar    1  UNL1        0.0111
     25 C          66.8950   93.2422   10.0997 C.ar    1  UNL1       -0.0015
     26 C          66.6516   92.6224   13.6711 C.ar    1  UNL1       -0.0003
     27 C          66.1383   93.1218   14.9892 C.ar    1  UNL1       -0.0024
     28 C          66.9593   92.9399   16.2313 C.ar    1  UNL1       -0.0003
     29 C          68.2936   92.2586   16.1553 C.ar    1  UNL1       -0.0000
     30 C          68.8068   91.7594   14.8372 C.ar    1  UNL1       -0.0003
     31 C          67.9858   91.9412   13.5951 C.ar    1  UNL1       -0.0024
@<TRIPOS>BOND
     1    16    17    3
     2    17    10    1
     3    10    11   ar
     4    11    12   ar
     5    12    13   ar
     6    13     6    1
     7     6     7    2
     8     6     8   am
     9     8     5    1
    10     5     1    1
    11     1     2    2
    12     1     3   am
    13     3    18    1
    14    18    26    1
    15    26    27   ar
    16    27    28   ar
    17    28    29   ar
    18    29    30   ar
    19    30    31   ar
    20    18    19    1
    21    19    20   ar
    22    20    21   ar
    23    21    22   ar
    24    22    23    1
    25    22    24   ar
    26    24    25   ar
    27    13    14   ar
    28    14    15   ar
    29    15    10   ar
    30    31    26   ar
    31    25    19   ar
    32     8     9    1
    33     3     4    1
@<TRIPOS>MOLECULE
*****
 31 33 0 0 0
SMALL
GASTEIGER

@<TRIPOS>ATOM
      1 C          63.9606   91.5408   12.4870 C.2     1  UNL1        0.2430
      2 O          64.5771   91.6883   13.8464 O.2     1  UNL1       -0.2732
      3 N          64.5717   92.2363   11.3068 N.am    1  UNL1       -0.2972
      4 H          64.1671   92.1395   10.4145 H       1  UNL1        0.1500
      5 C          62.7330   90.6976   12.3076 C.3     1  UNL1        0.1759
      6 C          61.4487   88.8371   11.0274 C.2     1  UNL1        0.2462
      7 O          60.2864   88.9964   11.9621 O.2     1  UNL1       -0.2701
      8 N          62.6720   89.6877   11.2002 N.am    1  UNL1       -0.2931
      9 H          63.4348   89.5832   10.5867 H       1  UNL1        0.1502
     10 C          61.2656   85.8074    7.7052 C.ar    1  UNL1        0.0685
     11 C          60.0877   86.6957    7.9759 C.ar    1  UNL1        0.0104
     12 C          60.1487   87.7056    9.0833 C.ar    1  UNL1        0.0052
     13 C          61.3876   87.8272    9.9200 C.ar    1  UNL1        0.0534
     14 C          62.5656   86.9389    9.6493 C.ar    1  UNL1        0.0052
     15 C          62.5046   85.9290    8.5419 C.ar    1  UNL1        0.0104
     16 N          61.1436   83.7876    5.4903 N.1     1  UNL1       -0.1908
     17 C          61.2046   84.7975    6.5977 C.1     1  UNL1        0.1004
     18 C          65.7993   93.0794   11.4861 C.3     1  UNL1        0.1169
     19 C          66.6440   92.9224   12.7157 C.ar    1  UNL1       -0.0003
     20 C          67.6562   91.8182   12.7943 C.ar    1  UNL1       -0.0015
     21 C          68.5009   91.6611   14.0238 C.ar    1  UNL1        0.0111
     22 C          68.3334   92.6084   15.1747 C.ar    1  UNL1        0.0577
     23 CL         69.1781   92.4514   16.4044 Cl      1  UNL1       -0.0822
     24 C          67.3213   93.7126   15.0961 C.ar    1  UNL1        0.0111
     25 C          66.4766   93.8697   13.8666 C.ar    1  UNL1       -0.0015
     26 C          66.1822   94.0796   10.4358 C.ar    1  UNL1       -0.0003
     27 C          67.1822   93.7125    9.3797 C.ar    1  UNL1       -0.0024
     28 C          67.5652   94.7126    8.3294 C.ar    1  UNL1       -0.0003
     29 C          66.9481   96.0798    8.3352 C.ar    1  UNL1       -0.0000
     30 C          65.9482   96.4469    9.3913 C.ar    1  UNL1       -0.0003
     31 C          65.5652   95.4467   10.4416 C.ar    1  UNL1       -0.0024
@<TRIPOS>BOND
     1    16    17    3
     2    17    10    1
     3    10    11   ar
     4    11    12   ar
     5    12    13   ar
     6    13     6    1
     7     6     7    2
     8     6     8   am
     9     8     5    1
    10     5     1    1
    11     1     2    2
    12     1     3   am
    13     3    18    1
    14    18    26    1
    15    26    27   ar
    16    27    28   ar
    17    28    29   ar
    18    29    30   ar
    19    30    31   ar
    20    18    19    1
    21    19    20   ar
    22    20    21   ar
    23    21    22   ar
    24    22    23    1
    25    22    24   ar
    26    24    25   ar
    27    13    14   ar
    28    14    15   ar
    29    15    10   ar
    30    31    26   ar
    31    25    19   ar
    32     8     9    1
    33     3     4    1
@<TRIPOS>MOLECULE
*****
 31 33 0 0 0
SMALL
GASTEIGER

@<TRIPOS>ATOM
      1 C          63.8157   91.6821   11.5857 C.2     1  UNL1        0.2430
      2 O          64.0283   91.9407   13.0478 O.2     1  UNL1       -0.2732
      3 N          64.7112   92.3297   10.5715 N.am    1  UNL1       -0.2972
      4 H          64.5717   92.1599    9.6118 H       1  UNL1        0.1500
      5 C          62.7075   90.7757   11.1376 C.3     1  UNL1        0.1759
      6 C          63.0576   88.6533   12.5945 C.2     1  UNL1        0.2462
      7 O          63.0950   89.5061   13.8279 O.2     1  UNL1       -0.2701
      8 N          62.8639   89.2881   11.2494 N.am    1  UNL1       -0.2931
      9 H          62.8393   88.7284   10.4399 H       1  UNL1        0.1502
     10 C          63.5266   84.1904   12.9299 C.ar    1  UNL1        0.0685
     11 C          64.0517   85.0833   14.0147 C.ar    1  UNL1        0.0104
     12 C          63.8954   86.5709   13.9029 C.ar    1  UNL1        0.0052
     13 C          63.2139   87.1656   12.7063 C.ar    1  UNL1        0.0534
     14 C          62.6888   86.2727   11.6215 C.ar    1  UNL1        0.0052
     15 C          62.8452   84.7851   11.7333 C.ar    1  UNL1        0.0104
     16 N          63.8392   81.2151   13.1534 N.1     1  UNL1       -0.1908
     17 C          63.6829   82.7027   13.0416 C.1     1  UNL1        0.1004
     18 C          65.8193   93.2360   11.0194 C.3     1  UNL1        0.1169
     19 C          66.5022   92.9933   12.3328 C.ar    1  UNL1       -0.0003
     20 C          66.1955   93.8698   13.5108 C.ar    1  UNL1       -0.0015
     21 C          66.8783   93.6272   14.8241 C.ar    1  UNL1        0.0111
     22 C          67.8678   92.5080   14.9594 C.ar    1  UNL1        0.0577
     23 CL         68.5506   92.2653   16.2728 Cl      1  UNL1       -0.0822
     24 C          68.1744   91.6315   13.7814 C.ar    1  UNL1        0.0111
     25 C          67.4916   91.8741   12.4681 C.ar    1  UNL1       -0.0015
     26 C          66.2446   94.3850   10.1540 C.ar    1  UNL1       -0.0003
     27 C          67.3760   94.2147    9.1839 C.ar    1  UNL1       -0.0024
     28 C          67.8013   95.3637    8.3185 C.ar    1  UNL1       -0.0003
     29 C          67.0952   96.6831    8.4233 C.ar    1  UNL1       -0.0000
     30 C          65.9640   96.8534    9.3935 C.ar    1  UNL1       -0.0003
     31 C          65.5387   95.7043   10.2588 C.ar    1  UNL1       -0.0024
@<TRIPOS>BOND
     1    16    17    3
     2    17    10    1
     3    10    11   ar
     4    11    12   ar
     5    12    13   ar
     6    13     6    1
     7     6     7    2
     8     6     8   am
     9     8     5    1
    10     5     1    1
    11     1     2    2
    12     1     3   am
    13     3    18    1
    14    18    26    1
    15    26    27   ar
    16    27    28   ar
    17    28    29   ar
    18    29    30   ar
    19    30    31   ar
    20    18    19    1
    21    19    20   ar
    22    20    21   ar
    23    21    22   ar
    24    22    23    1
    25    22    24   ar
    26    24    25   ar
    27    13    14   ar
    28    14    15   ar
    29    15    10   ar
    30    31    26   ar
    31    25    19   ar
    32     8     9    1
    33     3     4    1
@<TRIPOS>MOLECULE
*****
 31 33 0 0 0
SMALL
GASTEIGER

@<TRIPOS>ATOM
      1 C          60.6254   86.6536    9.0051 C.2     1  UNL1        0.2430
      2 O          61.9257   86.3048    8.3437 O.2     1  UNL1       -0.2732
      3 N          60.5739   86.8762   10.4876 N.am    1  UNL1       -0.2972
      4 H          59.7205   87.1052   10.9217 H       1  UNL1        0.1500
      5 C          59.3764   86.7799    8.1840 C.3     1  UNL1        0.1759
      6 C          59.6633   89.1912    7.2602 C.2     1  UNL1        0.2462
      7 O          60.0494   89.6694    8.6285 O.2     1  UNL1       -0.2701
      8 N          59.3268   87.7464    7.0379 N.am    1  UNL1       -0.2931
      9 H          59.0734   87.4326    6.1399 H       1  UNL1        0.1502
     10 C          59.5146   92.0908    3.8222 C.ar    1  UNL1        0.0685
     11 C          60.8267   91.5063    4.2541 C.ar    1  UNL1        0.0104
     12 C          60.8763   90.5397    5.4001 C.ar    1  UNL1        0.0052
     13 C          59.6138   90.1577    6.1142 C.ar    1  UNL1        0.0534
     14 C          58.3016   90.7423    5.6823 C.ar    1  UNL1        0.0052
     15 C          58.2521   91.7088    4.5363 C.ar    1  UNL1        0.0104
     16 N          59.4155   94.0239    1.5302 N.1     1  UNL1       -0.1908
     17 C          59.4651   93.0574    2.6762 C.1     1  UNL1        0.1004
     18 C          61.8228   86.7500   11.3087 C.3     1  UNL1        0.1169
     19 C          62.3520   85.3924   11.6653 C.ar    1  UNL1       -0.0003
     20 C          62.2061   84.8746   13.0655 C.ar    1  UNL1       -0.0015
     21 C          62.7353   83.5171   13.4220 C.ar    1  UNL1        0.0111
     22 C          63.4103   82.6774   12.3783 C.ar    1  UNL1        0.0577
     23 CL         63.9395   81.3198   12.7348 Cl      1  UNL1       -0.0822
     24 C          63.5561   83.1952   10.9781 C.ar    1  UNL1        0.0111
     25 C          63.0270   84.5527   10.6216 C.ar    1  UNL1       -0.0015
     26 C          62.5426   87.9812   11.7734 C.ar    1  UNL1       -0.0003
     27 C          62.4204   89.2592   10.9975 C.ar    1  UNL1       -0.0024
     28 C          63.1401   90.4905   11.4622 C.ar    1  UNL1       -0.0003
     29 C          63.9821   90.4438   12.7028 C.ar    1  UNL1       -0.0000
     30 C          64.1043   89.1659   13.4786 C.ar    1  UNL1       -0.0003
     31 C          63.3845   87.9346   13.0139 C.ar    1  UNL1       -0.0024
@<TRIPOS>BOND
     1    16    17    3
     2    17    10    1
     3    10    11   ar
     4    11    12   ar
     5    12    13   ar
     6    13     6    1
     7     6     7    2
     8     6     8   am
     9     8     5    1
    10     5     1    1
    11     1     2    2
    12     1     3   am
    13     3    18    1
    14    18    26    1
    15    26    27   ar
    16    27    28   ar
    17    28    29   ar
    18    29    30   ar
    19    30    31   ar
    20    18    19    1
    21    19    20   ar
    22    20    21   ar
    23    21    22   ar
    24    22    23    1
    25    22    24   ar
    26    24    25   ar
    27    13    14   ar
    28    14    15   ar
    29    15    10   ar
    30    31    26   ar
    31    25    19   ar
    32     8     9    1
    33     3     4    1
