@<TRIPOS>MOLECULE
*****
 46 50 0 0 0
SMALL
GASTEIGER

@<TRIPOS>ATOM
      1 N          61.6841   87.0171   11.4960 N.ar    1  UNL1       -0.3260
      2 C          62.3725   86.0029   12.3606 C.ar    1  UNL1        0.0433
      3 C          63.4229   86.7134   13.1618 C.ar    1  UNL1        0.0383
      4 C          63.3836   88.1667   12.7924 C.ar    1  UNL1        0.0256
      5 C          64.1876   89.3433   13.2605 C.ar    1  UNL1        0.0389
      6 C          63.9169   90.7077   12.6990 C.ar    1  UNL1        0.1392
      7 C          62.8423   90.8953   11.6694 C.ar    1  UNL1        0.0384
      8 C          62.0384   89.7187   11.2013 C.ar    1  UNL1        0.0203
      9 C          62.3090   88.3544   11.7628 C.ar    1  UNL1        0.0606
     10 C          60.5670   86.7423   10.5335 C.3     1  UNL1        0.1324
     11 C          59.8736   89.4983    7.0445 C.ar    1  UNL1        0.0015
     12 C          60.0997   90.0652    8.4147 C.ar    1  UNL1       -0.0002
     13 C          60.3308   89.1465    9.5777 C.ar    1  UNL1       -0.0024
     14 C          60.3359   87.6609    9.3706 C.ar    1  UNL1        0.0004
     15 C          60.1098   87.0940    8.0003 C.ar    1  UNL1       -0.0024
     16 C          59.8786   88.0126    6.8372 C.ar    1  UNL1       -0.0002
     17 C          59.1802   92.2542    3.5554 C.ar    1  UNL1        0.2249
     18 C          60.5679   91.7823    3.8741 C.ar    1  UNL1        0.0577
     19 C          60.7991   90.8637    5.0371 C.ar    1  UNL1        0.0063
     20 C          59.6425   90.4169    5.8814 C.ar    1  UNL1        0.0194
     21 C          58.2548   90.8889    5.5627 C.ar    1  UNL1        0.1020
     22 N          58.0236   91.8075    4.3996 N.ar    1  UNL1       -0.2101
     23 O          58.9491   93.1728    2.3923 O.3     1  UNL1       -0.4602
     24 C          59.9579   92.3718    0.1361 C.3     1  UNL1        0.0512
     25 C          59.9870   93.2968    1.3166 C.3     1  UNL1        0.2072
     26 C          62.0646   84.5358   12.4146 C.3     1  UNL1        0.0495
     27 C          62.8819   83.5679   11.6114 C.3     1  UNL1        0.0376
     28 C          63.1350   84.6328   10.5857 C.3     1  UNL1        0.0059
     29 C          62.6288   82.5031   12.6370 C.3     1  UNL1        0.0059
     30 C          63.6993   82.6000   10.8081 C.2     1  UNL1        0.0500
     31 O          65.0331   83.0166   10.2628 O.co2   1  UNL1       -0.5492
     32 O          63.1828   81.2156   10.5502 O.co2   1  UNL1       -0.5492
     33 S          64.3497   86.0816   14.1577 S.3     1  UNL1       -0.1142
     34 C          63.8810   85.8216   15.5587 C.3     1  UNL1        0.0434
     35 C          63.7875   87.2988   15.8016 C.3     1  UNL1        0.0112
     36 C          63.9745   84.3444   15.3157 C.3     1  UNL1        0.0112
     37 C          63.4123   85.5615   16.9596 C.3     1  UNL1        0.0112
     38 O          64.7209   91.8844   13.1670 O.3     1  UNL1       -0.4690
     39 C          66.1485   92.0377   12.7330 C.3     1  UNL1        0.2508
     40 C          66.5043   93.0227   11.6592 C.ar    1  UNL1        0.1026
     41 C          67.2303   92.5626   10.4299 C.ar    1  UNL1        0.0181
     42 C          67.5861   93.5477    9.3561 C.ar    1  UNL1       -0.0014
     43 C          67.2159   94.9930    9.5116 C.ar    1  UNL1       -0.0027
     44 C          67.5717   95.9780    8.4379 C.3     1  UNL1        0.0327
     45 C          66.4899   95.4531   10.7409 C.ar    1  UNL1        0.0943
     46 N          66.1341   94.4681   11.8147 N.ar    1  UNL1       -0.2448
@<TRIPOS>UNITY_ATOM_ATTR
31 1
charge -1
@<TRIPOS>BOND
     1    24    25    1
     2    25    23    1
     3    23    17    1
     4    17    18   ar
     5    18    19   ar
     6    19    20   ar
     7    20    11    1
     8    11    12   ar
     9    12    13   ar
    10    13    14   ar
    11    14    10    1
    12    10     1    1
    13     1     2   ar
    14     2    26    1
    15    26    27    1
    16    27    28    1
    17    27    29    1
    18    27    30    1
    19    30    31   ar
    20    30    32   ar
    21     2     3   ar
    22     3    33    1
    23    33    34    1
    24    34    35    1
    25    34    36    1
    26    34    37    1
    27     3     4   ar
    28     4     5   ar
    29     5     6   ar
    30     6    38    1
    31    38    39    1
    32    39    40    1
    33    40    41   ar
    34    41    42   ar
    35    42    43   ar
    36    43    44    1
    37    43    45   ar
    38    45    46   ar
    39     6     7   ar
    40     7     8   ar
    41     8     9   ar
    42    14    15   ar
    43    15    16   ar
    44    20    21   ar
    45    21    22   ar
    46    22    17   ar
    47    16    11   ar
    48     9     1   ar
    49     9     4   ar
    50    46    40   ar
@<TRIPOS>MOLECULE
*****
 46 50 0 0 0
SMALL
GASTEIGER

@<TRIPOS>ATOM
      1 N          61.3303   86.7499   11.0422 N.ar    1  UNL1       -0.3260
      2 C          62.0699   85.6357   11.7215 C.ar    1  UNL1        0.0433
      3 C          63.0719   86.2465   12.6558 C.ar    1  UNL1        0.0383
      4 C          62.9517   87.7382   12.5539 C.ar    1  UNL1        0.0256
      5 C          63.6832   88.8533   13.2403 C.ar    1  UNL1        0.0389
      6 C          63.3383   90.2796   12.9295 C.ar    1  UNL1        0.1392
      7 C          62.2620   90.5908   11.9322 C.ar    1  UNL1        0.0384
      8 C          61.5304   89.4756   11.2457 C.ar    1  UNL1        0.0203
      9 C          61.8753   88.0493   11.5566 C.ar    1  UNL1        0.0606
     10 C          60.2377   86.5925   10.0267 C.3     1  UNL1        0.1324
     11 C          59.8230   89.5786    6.6859 C.ar    1  UNL1        0.0015
     12 C          60.0918   90.0501    8.0842 C.ar    1  UNL1       -0.0002
     13 C          60.2300   89.0548    9.1978 C.ar    1  UNL1       -0.0024
     14 C          60.0995   87.5878    8.9131 C.ar    1  UNL1        0.0004
     15 C          59.8307   87.1163    7.5147 C.ar    1  UNL1       -0.0024
     16 C          59.6924   88.1117    6.4011 C.ar    1  UNL1       -0.0002
     17 C          59.4083   92.5646    3.3450 C.ar    1  UNL1        0.2249
     18 C          60.7532   91.9852    3.6704 C.ar    1  UNL1        0.0577
     19 C          60.8914   90.9899    4.7840 C.ar    1  UNL1        0.0063
     20 C          59.6848   90.5739    5.5723 C.ar    1  UNL1        0.0194
     21 C          58.3400   91.1534    5.2468 C.ar    1  UNL1        0.1020
     22 N          58.2018   92.1487    4.1332 N.ar    1  UNL1       -0.2101
     23 O          59.2701   93.5600    2.2314 O.3     1  UNL1       -0.4602
     24 C          59.9104   92.1714    0.1309 C.3     1  UNL1        0.0512
     25 C          60.0766   93.3988    0.9770 C.3     1  UNL1        0.2072
     26 C          61.8466   84.1683   11.5047 C.3     1  UNL1        0.0495
     27 C          63.0182   83.2524   11.3085 C.3     1  UNL1        0.0376
     28 C          63.4216   84.0293   10.0905 C.3     1  UNL1        0.0059
     29 C          62.6147   82.4755   12.5265 C.3     1  UNL1        0.0059
     30 C          64.1898   82.3364   11.1123 C.2     1  UNL1        0.0500
     31 O          64.8897   82.2874    9.7865 O.co2   1  UNL1       -0.5492
     32 O          64.6614   81.4695   12.2418 O.co2   1  UNL1       -0.5492
     33 S          64.0266   85.4971   13.5373 S.3     1  UNL1       -0.1142
     34 C          63.9040   85.5944   15.0292 C.3     1  UNL1        0.0434
     35 C          62.5976   84.8598   14.9697 C.3     1  UNL1        0.0112
     36 C          65.2104   86.3291   15.0886 C.3     1  UNL1        0.0112
     37 C          63.7814   85.6918   16.5210 C.3     1  UNL1        0.0112
     38 O          64.0699   91.3949   13.6159 O.3     1  UNL1       -0.4690
     39 C          65.3144   91.9649   13.0025 C.3     1  UNL1        0.2508
     40 C          66.4878   92.3107   13.8705 C.ar    1  UNL1        0.1026
     41 C          66.2668   92.7871   15.2756 C.ar    1  UNL1        0.0181
     42 C          67.4404   93.1329   16.1436 C.ar    1  UNL1       -0.0014
     43 C          68.8348   93.0023   15.6065 C.ar    1  UNL1       -0.0027
     44 C          70.0082   93.3481   16.4745 C.3     1  UNL1        0.0327
     45 C          69.0558   92.5258   14.2015 C.ar    1  UNL1        0.0943
     46 N          67.8823   92.1800   13.3335 N.ar    1  UNL1       -0.2448
@<TRIPOS>UNITY_ATOM_ATTR
31 1
charge -1
@<TRIPOS>BOND
     1    24    25    1
     2    25    23    1
     3    23    17    1
     4    17    18   ar
     5    18    19   ar
     6    19    20   ar
     7    20    11    1
     8    11    12   ar
     9    12    13   ar
    10    13    14   ar
    11    14    10    1
    12    10     1    1
    13     1     2   ar
    14     2    26    1
    15    26    27    1
    16    27    28    1
    17    27    29    1
    18    27    30    1
    19    30    31   ar
    20    30    32   ar
    21     2     3   ar
    22     3    33    1
    23    33    34    1
    24    34    35    1
    25    34    36    1
    26    34    37    1
    27     3     4   ar
    28     4     5   ar
    29     5     6   ar
    30     6    38    1
    31    38    39    1
    32    39    40    1
    33    40    41   ar
    34    41    42   ar
    35    42    43   ar
    36    43    44    1
    37    43    45   ar
    38    45    46   ar
    39     6     7   ar
    40     7     8   ar
    41     8     9   ar
    42    14    15   ar
    43    15    16   ar
    44    20    21   ar
    45    21    22   ar
    46    22    17   ar
    47    16    11   ar
    48     9     1   ar
    49     9     4   ar
    50    46    40   ar
