@<TRIPOS>MOLECULE
*****
 37 41 0 0 0
SMALL
GASTEIGER

@<TRIPOS>ATOM
      1 C          63.6495   86.5234   14.5503 C.ar    1  UNL1        0.0383
      2 C          63.0965   86.1919   15.9046 C.ar    1  UNL1        0.1018
      3 N          62.9581   87.2667   16.9418 N.ar    1  UNL1       -0.2292
      4 C          63.3727   88.6729   16.6246 C.ar    1  UNL1        0.1318
      5 C          63.9258   89.0044   15.2702 C.ar    1  UNL1        0.0306
      6 C          64.0641   87.9296   14.2331 C.ar    1  UNL1        0.0033
      7 C          64.2484   90.4691   15.2470 C.3     1  UNL1        0.1338
      8 C          64.6887   90.1892   13.8407 C.3     1  UNL1        0.0298
      9 C          63.8947   91.0429   16.5871 C.2     1  UNL1        0.2437
     10 O          64.0543   92.4753   17.0027 O.2     1  UNL1       -0.2730
     11 N          63.3536   89.9328   17.4385 N.am    1  UNL1       -0.2682
     12 H          63.0407   90.0164   18.3682 H       1  UNL1        0.1563
     13 N          62.5100   84.9668    9.9176 N.ar    1  UNL1       -0.2967
     14 C          61.9038   86.3094   10.2006 C.ar    1  UNL1        0.1480
     15 N          62.2861   86.7058   11.5958 N.ar    1  UNL1       -0.2236
     16 C          63.1287   85.6082   12.1751 C.ar    1  UNL1        0.1346
     17 C          63.7878   85.4486   13.5130 C.ar    1  UNL1        0.1051
     18 N          64.5853   84.2143   13.8138 N.ar    1  UNL1       -0.2223
     19 C          64.7236   83.1396   12.7766 C.ar    1  UNL1        0.2003
     20 N          64.0645   83.2992   11.4386 N.ar    1  UNL1       -0.2049
     21 C          63.2671   84.5335   11.1379 C.ar    1  UNL1        0.1659
     22 C          61.0628   87.1142    9.2545 C.ar    1  UNL1        0.0725
     23 C          61.1280   88.6125    9.2820 C.ar    1  UNL1        0.1048
     24 N          60.2870   89.4172    8.3359 N.ar    1  UNL1       -0.2290
     25 C          59.3809   88.7236    7.3623 C.ar    1  UNL1        0.1396
     26 C          58.5399   89.5284    6.4161 C.3     1  UNL1        0.0737
     27 N          59.3157   87.2253    7.3348 N.ar    1  UNL1       -0.2290
     28 C          60.1567   86.4206    8.2809 C.ar    1  UNL1        0.1048
     29 C          62.9072   84.7699    7.3576 C.3     1  UNL1        0.0266
     30 C          62.3817   84.1934    8.6388 C.3     1  UNL1        0.1090
     31 N          64.6630   91.8753   14.9298 N.3     1  UNL1       -0.2872
     32 H          64.7265   92.3712   15.8189 H       1  UNL1        0.1240
     33 C          65.9473   92.1316   14.1985 C.3     1  UNL1        0.1020
     34 C          66.9438   93.1067   14.7518 C.3     1  UNL1        0.1484
     35 C          66.5020   94.1287   13.7467 C.3     1  UNL1        0.0368
     36 C          67.3856   92.0846   15.7570 C.3     1  UNL1        0.0368
     37 F          67.9403   94.0817   15.3052 F       1  UNL1       -0.2386
@<TRIPOS>BOND
     1    29    30    1
     2    30    13    1
     3    13    14   ar
     4    14    22    1
     5    22    23   ar
     6    23    24   ar
     7    24    25   ar
     8    25    26    1
     9    25    27   ar
    10    27    28   ar
    11    14    15   ar
    12    15    16   ar
    13    16    17   ar
    14    17     1    1
    15     1     2   ar
    16     2     3   ar
    17     3     4   ar
    18     4     5   ar
    19     5     6   ar
    20     5     7    1
    21     7     8    1
    22     7    31    1
    23    31    33    1
    24    33    34    1
    25    34    35    1
    26    34    36    1
    27    34    37    1
    28     7     9    1
    29     9    10    2
    30     9    11   am
    31    17    18   ar
    32    18    19   ar
    33    19    20   ar
    34    20    21   ar
    35    21    13   ar
    36    28    22   ar
    37    21    16   ar
    38     6     1   ar
    39    11     4    1
    40    31    32    1
    41    11    12    1
@<TRIPOS>MOLECULE
*****
 37 41 0 0 0
SMALL
GASTEIGER

@<TRIPOS>ATOM
      1 C          62.3642   89.7841   12.1940 C.ar    1  UNL1        0.0383
      2 C          61.3440   90.6189   11.4783 C.ar    1  UNL1        0.1018
      3 N          60.5213   90.0175   10.3776 N.ar    1  UNL1       -0.2292
      4 C          60.7189   88.5813    9.9925 C.ar    1  UNL1        0.1318
      5 C          61.7392   87.7465   10.7083 C.ar    1  UNL1        0.0306
      6 C          62.5618   88.3479   11.8089 C.ar    1  UNL1        0.0033
      7 C          61.7113   86.3697   10.1136 C.3     1  UNL1        0.1338
      8 C          62.7901   86.0855   11.1163 C.3     1  UNL1        0.0298
      9 C          60.6738   86.3536    9.0304 C.2     1  UNL1        0.2437
     10 O          60.3129   85.1771    8.1726 O.2     1  UNL1       -0.2730
     11 N          60.0605   87.7204    8.9556 N.am    1  UNL1       -0.2682
     12 H          59.3504   88.0029    8.3348 H       1  UNL1        0.1563
     13 N          65.8666   93.1378   13.4860 N.ar    1  UNL1       -0.2967
     14 C          65.5864   93.1896   12.0133 C.ar    1  UNL1        0.1480
     15 N          64.5355   92.1647   11.7050 N.ar    1  UNL1       -0.2236
     16 C          64.1661   91.4794   12.9873 C.ar    1  UNL1        0.1346
     17 C          63.1869   90.3855   13.2947 C.ar    1  UNL1        0.1051
     18 N          63.0304   89.8930   14.7029 N.ar    1  UNL1       -0.2223
     19 C          63.8531   90.4944   15.8035 C.ar    1  UNL1        0.2003
     20 N          64.8322   91.5883   15.4961 N.ar    1  UNL1       -0.2049
     21 C          64.9888   92.0808   14.0879 C.ar    1  UNL1        0.1659
     22 C          66.2421   94.1056   11.0228 C.ar    1  UNL1        0.0725
     23 C          67.2637   93.5672   10.0654 C.ar    1  UNL1        0.1048
     24 N          67.9193   94.4832    9.0749 N.ar    1  UNL1       -0.2290
     25 C          67.5535   95.9375    9.0419 C.ar    1  UNL1        0.1396
     26 C          68.2092   96.8535    8.0513 C.3     1  UNL1        0.0737
     27 N          66.5320   96.4759    9.9993 N.ar    1  UNL1       -0.2290
     28 C          65.8763   95.5599   10.9897 C.ar    1  UNL1        0.1048
     29 C          67.8177   93.3640   15.1865 C.3     1  UNL1        0.0266
     30 C          66.8516   93.9927   14.2268 C.3     1  UNL1        0.1090
     31 N          61.9089   84.9335    9.7286 N.3     1  UNL1       -0.2872
     32 H          62.5422   84.9274    8.9290 H       1  UNL1        0.1240
     33 C          62.4614   83.9588   10.7259 C.3     1  UNL1        0.1020
     34 C          63.5659   83.0247   10.3291 C.3     1  UNL1        0.1484
     35 C          63.3017   82.1939   11.5498 C.3     1  UNL1        0.0368
     36 C          63.8301   83.8556    9.1085 C.3     1  UNL1        0.0368
     37 F          64.6705   82.0906    9.9324 F       1  UNL1       -0.2386
@<TRIPOS>BOND
     1    29    30    1
     2    30    13    1
     3    13    14   ar
     4    14    22    1
     5    22    23   ar
     6    23    24   ar
     7    24    25   ar
     8    25    26    1
     9    25    27   ar
    10    27    28   ar
    11    14    15   ar
    12    15    16   ar
    13    16    17   ar
    14    17     1    1
    15     1     2   ar
    16     2     3   ar
    17     3     4   ar
    18     4     5   ar
    19     5     6   ar
    20     5     7    1
    21     7     8    1
    22     7    31    1
    23    31    33    1
    24    33    34    1
    25    34    35    1
    26    34    36    1
    27    34    37    1
    28     7     9    1
    29     9    10    2
    30     9    11   am
    31    17    18   ar
    32    18    19   ar
    33    19    20   ar
    34    20    21   ar
    35    21    13   ar
    36    28    22   ar
    37    21    16   ar
    38     6     1   ar
    39    11     4    1
    40    31    32    1
    41    11    12    1
@<TRIPOS>MOLECULE
*****
 37 41 0 0 0
SMALL
GASTEIGER

@<TRIPOS>ATOM
      1 C          62.0570   89.6158   11.6421 C.ar    1  UNL1        0.0383
      2 C          60.9624   90.6111   11.3951 C.ar    1  UNL1        0.1018
      3 N          59.9087   90.3272   10.3658 N.ar    1  UNL1       -0.2292
      4 C          59.9498   89.0480    9.5835 C.ar    1  UNL1        0.1318
      5 C          61.0445   88.0526    9.8306 C.ar    1  UNL1        0.0306
      6 C          62.0981   88.3365   10.8599 C.ar    1  UNL1        0.0033
      7 C          60.8268   86.8868    8.9123 C.3     1  UNL1        0.1338
      8 C          62.0646   86.3446    9.5634 C.3     1  UNL1        0.0298
      9 C          59.5976   87.1616    8.0976 C.2     1  UNL1        0.2437
     10 O          59.0131   86.2591    7.0517 O.2     1  UNL1       -0.2730
     11 N          59.0556   88.4973    8.5125 N.am    1  UNL1       -0.2682
     12 H          58.2538   88.9355    8.1462 H       1  UNL1        0.1563
     13 N          66.1020   92.3061   12.9001 N.ar    1  UNL1       -0.2967
     14 C          65.6007   92.6888   11.5391 C.ar    1  UNL1        0.1480
     15 N          64.3972   91.8468   11.2347 N.ar    1  UNL1       -0.2236
     16 C          64.1547   90.9438   12.4077 C.ar    1  UNL1        0.1346
     17 C          63.1106   89.8996   12.6714 C.ar    1  UNL1        0.1051
     18 N          63.1200   89.1394   13.9644 N.ar    1  UNL1       -0.2223
     19 C          64.1736   89.4233   14.9936 C.ar    1  UNL1        0.2003
     20 N          65.2177   90.4674   14.7299 N.ar    1  UNL1       -0.2049
     21 C          65.2083   91.2276   13.4369 C.ar    1  UNL1        0.1659
     22 C          66.1981   93.7306   10.6402 C.ar    1  UNL1        0.0725
     23 C          67.3030   93.3616    9.6952 C.ar    1  UNL1        0.1048
     24 N          67.9003   94.4034    8.7964 N.ar    1  UNL1       -0.2290
     25 C          67.3928   95.8142    8.8427 C.ar    1  UNL1        0.1396
     26 C          67.9902   96.8560    7.9439 C.3     1  UNL1        0.0737
     27 N          66.2880   96.1832    9.7878 N.ar    1  UNL1       -0.2290
     28 C          65.6907   95.1414   10.6865 C.ar    1  UNL1        0.1048
     29 C          67.1536   93.4047   15.0066 C.3     1  UNL1        0.0266
     30 C          67.2886   92.8980   13.6012 C.3     1  UNL1        0.1090
     31 N          60.8679   85.6076    8.1300 N.3     1  UNL1       -0.2872
     32 H          60.1557   85.6835    7.4039 H       1  UNL1        0.1240
     33 C          62.1362   85.1847    7.4500 C.3     1  UNL1        0.1020
     34 C          62.0786   84.4710    6.1319 C.3     1  UNL1        0.1484
     35 C          60.6503   84.0970    6.3969 C.3     1  UNL1        0.0368
     36 C          63.5068   84.8450    5.8670 C.3     1  UNL1        0.0368
     37 F          62.0209   83.7573    4.8139 F       1  UNL1       -0.2386
@<TRIPOS>BOND
     1    29    30    1
     2    30    13    1
     3    13    14   ar
     4    14    22    1
     5    22    23   ar
     6    23    24   ar
     7    24    25   ar
     8    25    26    1
     9    25    27   ar
    10    27    28   ar
    11    14    15   ar
    12    15    16   ar
    13    16    17   ar
    14    17     1    1
    15     1     2   ar
    16     2     3   ar
    17     3     4   ar
    18     4     5   ar
    19     5     6   ar
    20     5     7    1
    21     7     8    1
    22     7    31    1
    23    31    33    1
    24    33    34    1
    25    34    35    1
    26    34    36    1
    27    34    37    1
    28     7     9    1
    29     9    10    2
    30     9    11   am
    31    17    18   ar
    32    18    19   ar
    33    19    20   ar
    34    20    21   ar
    35    21    13   ar
    36    28    22   ar
    37    21    16   ar
    38     6     1   ar
    39    11     4    1
    40    31    32    1
    41    11    12    1
@<TRIPOS>MOLECULE
*****
 37 41 0 0 0
SMALL
GASTEIGER

@<TRIPOS>ATOM
      1 C          63.6106   85.0853   15.0863 C.ar    1  UNL1        0.0383
      2 C          64.1135   83.7669   15.5950 C.ar    1  UNL1        0.1018
      3 N          64.3510   82.6353   14.6393 N.ar    1  UNL1       -0.2292
      4 C          64.0857   82.8223   13.1748 C.ar    1  UNL1        0.1318
      5 C          63.5828   84.1408   12.6661 C.ar    1  UNL1        0.0306
      6 C          63.3453   85.2723   13.6218 C.ar    1  UNL1        0.0033
      7 C          63.4122   84.0296   11.1800 C.3     1  UNL1        0.1338
      8 C          62.9593   85.4559   11.2836 C.3     1  UNL1        0.0298
      9 C          63.8096   82.6425   10.7703 C.2     1  UNL1        0.2437
     10 O          63.7935   82.0972    9.3729 O.2     1  UNL1       -0.2730
     11 N          64.2258   81.8963   12.0031 N.am    1  UNL1       -0.2682
     12 H          64.5365   80.9628   12.0373 H       1  UNL1        0.1563
     13 N          63.7448   90.0407   15.8659 N.ar    1  UNL1       -0.2967
     14 C          64.1962   89.7002   14.4765 C.ar    1  UNL1        0.1480
     15 N          64.1292   88.2100   14.3196 N.ar    1  UNL1       -0.2236
     16 C          63.6363   87.6295   15.6120 C.ar    1  UNL1        0.1346
     17 C          63.3731   86.2168   16.0420 C.ar    1  UNL1        0.1051
     18 N          62.8723   85.9355   17.4277 N.ar    1  UNL1       -0.2223
     19 C          62.6348   87.0670   18.3833 C.ar    1  UNL1        0.2003
     20 N          62.8980   88.4797   17.9533 N.ar    1  UNL1       -0.2049
     21 C          63.3987   88.7610   16.5676 C.ar    1  UNL1        0.1659
     22 C          64.6373   90.6783   13.4282 C.ar    1  UNL1        0.0725
     23 C          65.9233   91.4313   13.5987 C.ar    1  UNL1        0.1048
     24 N          66.3643   92.4093   12.5504 N.ar    1  UNL1       -0.2290
     25 C          65.5193   92.6343   11.3316 C.ar    1  UNL1        0.1396
     26 C          65.9604   93.6124   10.2833 C.3     1  UNL1        0.0737
     27 N          64.2334   91.8812   11.1611 N.ar    1  UNL1       -0.2290
     28 C          63.7924   90.9032   12.2094 C.ar    1  UNL1        0.1048
     29 C          64.9056   92.1561   16.8292 C.3     1  UNL1        0.0266
     30 C          63.6552   91.4191   16.4509 C.3     1  UNL1        0.1090
     31 N          63.1468   84.2166    9.7156 N.3     1  UNL1       -0.2872
     32 H          62.4944   83.4831    9.4385 H       1  UNL1        0.1240
     33 C          62.5797   85.5121    9.2155 C.3     1  UNL1        0.1020
     34 C          61.7259   85.5307    7.9824 C.3     1  UNL1        0.1484
     35 C          60.6806   86.3159    8.7179 C.3     1  UNL1        0.0368
     36 C          62.7711   84.7455    7.2468 C.3     1  UNL1        0.0368
     37 F          60.8720   85.5493    6.7492 F       1  UNL1       -0.2386
@<TRIPOS>BOND
     1    29    30    1
     2    30    13    1
     3    13    14   ar
     4    14    22    1
     5    22    23   ar
     6    23    24   ar
     7    24    25   ar
     8    25    26    1
     9    25    27   ar
    10    27    28   ar
    11    14    15   ar
    12    15    16   ar
    13    16    17   ar
    14    17     1    1
    15     1     2   ar
    16     2     3   ar
    17     3     4   ar
    18     4     5   ar
    19     5     6   ar
    20     5     7    1
    21     7     8    1
    22     7    31    1
    23    31    33    1
    24    33    34    1
    25    34    35    1
    26    34    36    1
    27    34    37    1
    28     7     9    1
    29     9    10    2
    30     9    11   am
    31    17    18   ar
    32    18    19   ar
    33    19    20   ar
    34    20    21   ar
    35    21    13   ar
    36    28    22   ar
    37    21    16   ar
    38     6     1   ar
    39    11     4    1
    40    31    32    1
    41    11    12    1
@<TRIPOS>MOLECULE
*****
 37 41 0 0 0
SMALL
GASTEIGER

@<TRIPOS>ATOM
      1 C          62.7875   88.6774   12.1731 C.ar    1  UNL1        0.0383
      2 C          63.0534   87.2013   12.1505 C.ar    1  UNL1        0.1018
      3 N          62.4506   86.3469   11.0750 N.ar    1  UNL1       -0.2292
      4 C          61.5818   86.9687   10.0221 C.ar    1  UNL1        0.1318
      5 C          61.3159   88.4448   10.0446 C.ar    1  UNL1        0.0306
      6 C          61.9187   89.2991   11.1201 C.ar    1  UNL1        0.0033
      7 C          60.4257   88.7731    8.8829 C.3     1  UNL1        0.1338
      8 C          60.5283   90.1762    9.4033 C.3     1  UNL1        0.0298
      9 C          60.1414   87.5000    8.1423 C.2     1  UNL1        0.2437
     10 O          59.2917   87.3657    6.9134 O.2     1  UNL1       -0.2730
     11 N          60.8560   86.3848    8.8464 N.am    1  UNL1       -0.2682
     12 H          60.8496   85.4362    8.5831 H       1  UNL1        0.1563
     13 N          65.5473   92.7157   13.2947 N.ar    1  UNL1       -0.2967
     14 C          65.4045   92.5545   11.8102 C.ar    1  UNL1        0.1480
     15 N          64.5719   91.3333   11.5545 N.ar    1  UNL1       -0.2236
     16 C          64.2000   90.7398   12.8811 C.ar    1  UNL1        0.1346
     17 C          63.3904   89.5318   13.2486 C.ar    1  UNL1        0.1051
     18 N          63.1835   89.1781   14.6915 N.ar    1  UNL1       -0.2223
     19 C          63.7864   90.0325   15.7669 C.ar    1  UNL1        0.2003
     20 N          64.5960   91.2405   15.3994 N.ar    1  UNL1       -0.2049
     21 C          64.8029   91.5942   13.9565 C.ar    1  UNL1        0.1659
     22 C          65.9914   93.4562   10.7649 C.ar    1  UNL1        0.0725
     23 C          65.4499   94.8428   10.5807 C.ar    1  UNL1        0.1048
     24 N          66.0369   95.7444    9.5355 N.ar    1  UNL1       -0.2290
     25 C          67.1653   95.2594    8.6744 C.ar    1  UNL1        0.1396
     26 C          67.7522   96.1611    7.6291 C.3     1  UNL1        0.0737
     27 N          67.7067   93.8728    8.8586 N.ar    1  UNL1       -0.2290
     28 C          67.1198   92.9712    9.9038 C.ar    1  UNL1        0.1048
     29 C          67.3374   93.4619   15.0234 C.3     1  UNL1        0.0266
     30 C          66.3020   93.8069   13.9945 C.3     1  UNL1        0.1090
     31 N          59.5569   89.3949    7.8299 N.3     1  UNL1       -0.2872
     32 H          58.9728   90.0861    8.3006 H       1  UNL1        0.1240
     33 C          60.1815   90.0847    6.6535 C.3     1  UNL1        0.1020
     34 C          59.3135   90.6604    5.5740 C.3     1  UNL1        0.1484
     35 C          60.5346   91.1499    4.8534 C.3     1  UNL1        0.0368
     36 C          58.0925   90.1708    6.2947 C.3     1  UNL1        0.0368
     37 F          58.4456   91.2361    4.4946 F       1  UNL1       -0.2386
@<TRIPOS>BOND
     1    29    30    1
     2    30    13    1
     3    13    14   ar
     4    14    22    1
     5    22    23   ar
     6    23    24   ar
     7    24    25   ar
     8    25    26    1
     9    25    27   ar
    10    27    28   ar
    11    14    15   ar
    12    15    16   ar
    13    16    17   ar
    14    17     1    1
    15     1     2   ar
    16     2     3   ar
    17     3     4   ar
    18     4     5   ar
    19     5     6   ar
    20     5     7    1
    21     7     8    1
    22     7    31    1
    23    31    33    1
    24    33    34    1
    25    34    35    1
    26    34    36    1
    27    34    37    1
    28     7     9    1
    29     9    10    2
    30     9    11   am
    31    17    18   ar
    32    18    19   ar
    33    19    20   ar
    34    20    21   ar
    35    21    13   ar
    36    28    22   ar
    37    21    16   ar
    38     6     1   ar
    39    11     4    1
    40    31    32    1
    41    11    12    1
@<TRIPOS>MOLECULE
*****
 37 41 0 0 0
SMALL
GASTEIGER

@<TRIPOS>ATOM
      1 C          63.7526   86.3354   15.4650 C.ar    1  UNL1        0.0383
      2 C          63.1605   86.2790   16.8419 C.ar    1  UNL1        0.1018
      3 N          62.9352   87.5453   17.6139 N.ar    1  UNL1       -0.2292
      4 C          63.3022   88.8679   17.0089 C.ar    1  UNL1        0.1318
      5 C          63.8944   88.9242   15.6318 C.ar    1  UNL1        0.0306
      6 C          64.1196   87.6580   14.8599 C.ar    1  UNL1        0.0033
      7 C          64.1552   90.3631   15.2980 C.3     1  UNL1        0.1338
      8 C          64.6629   89.8067   14.0008 C.3     1  UNL1        0.0298
      9 C          63.7242   91.1961   16.4687 C.2     1  UNL1        0.2437
     10 O          63.8060   92.6908   16.5650 O.2     1  UNL1       -0.2730
     11 N          63.1970   90.2720   17.5260 N.am    1  UNL1       -0.2682
     12 H          62.8439   90.5399   18.4051 H       1  UNL1        0.1563
     13 N          63.0031   83.8174   11.1894 N.ar    1  UNL1       -0.2967
     14 C          62.3738   85.1778   11.1324 C.ar    1  UNL1        0.1480
     15 N          62.6387   85.8661   12.4385 N.ar    1  UNL1       -0.2236
     16 C          63.4317   84.9311   13.3027 C.ar    1  UNL1        0.1346
     17 C          63.9779   85.0691   14.6930 C.ar    1  UNL1        0.1051
     18 N          64.7493   83.9410   15.3112 N.ar    1  UNL1       -0.2223
     19 C          64.9745   82.6748   14.5392 C.ar    1  UNL1        0.2003
     20 N          64.4283   82.5368   13.1490 N.ar    1  UNL1       -0.2049
     21 C          63.6570   83.6649   12.5307 C.ar    1  UNL1        0.1659
     22 C          61.6131   85.7494    9.9728 C.ar    1  UNL1        0.0725
     23 C          60.5379   86.7681   10.2101 C.ar    1  UNL1        0.1048
     24 N          59.7773   87.3397    9.0505 N.ar    1  UNL1       -0.2290
     25 C          60.0919   86.8927    7.6536 C.ar    1  UNL1        0.1396
     26 C          59.3312   87.4643    6.4940 C.3     1  UNL1        0.0737
     27 N          61.1670   85.8740    7.4163 N.ar    1  UNL1       -0.2290
     28 C          61.9276   85.3024    8.5759 C.ar    1  UNL1        0.1048
     29 C          63.2129   81.3439   10.4226 C.3     1  UNL1        0.0266
     30 C          62.9823   82.7898   10.0969 C.3     1  UNL1        0.1090
     31 N          64.5222   91.6857   14.6930 N.3     1  UNL1       -0.2872
     32 H          64.8944   92.2618   15.4480 H       1  UNL1        0.1240
     33 C          65.5158   91.7474   13.5710 C.3     1  UNL1        0.1020
     34 C          66.0054   93.0756   13.0749 C.3     1  UNL1        0.1484
     35 C          66.5351   93.3912   14.4423 C.3     1  UNL1        0.0368
     36 C          65.4756   92.7600   11.7075 C.3     1  UNL1        0.0368
     37 F          66.4949   94.4038   12.5787 F       1  UNL1       -0.2386
@<TRIPOS>BOND
     1    29    30    1
     2    30    13    1
     3    13    14   ar
     4    14    22    1
     5    22    23   ar
     6    23    24   ar
     7    24    25   ar
     8    25    26    1
     9    25    27   ar
    10    27    28   ar
    11    14    15   ar
    12    15    16   ar
    13    16    17   ar
    14    17     1    1
    15     1     2   ar
    16     2     3   ar
    17     3     4   ar
    18     4     5   ar
    19     5     6   ar
    20     5     7    1
    21     7     8    1
    22     7    31    1
    23    31    33    1
    24    33    34    1
    25    34    35    1
    26    34    36    1
    27    34    37    1
    28     7     9    1
    29     9    10    2
    30     9    11   am
    31    17    18   ar
    32    18    19   ar
    33    19    20   ar
    34    20    21   ar
    35    21    13   ar
    36    28    22   ar
    37    21    16   ar
    38     6     1   ar
    39    11     4    1
    40    31    32    1
    41    11    12    1
@<TRIPOS>MOLECULE
*****
 37 41 0 0 0
SMALL
GASTEIGER

@<TRIPOS>ATOM
      1 C          63.3803   87.0450   13.3867 C.ar    1  UNL1        0.0383
      2 C          63.5529   87.2121   14.8673 C.ar    1  UNL1        0.1018
      3 N          63.7919   86.0118   15.7348 N.ar    1  UNL1       -0.2292
      4 C          63.8581   84.6445   15.1215 C.ar    1  UNL1        0.1318
      5 C          63.6855   84.4775   13.6408 C.ar    1  UNL1        0.0306
      6 C          63.4466   85.6777   12.7735 C.ar    1  UNL1        0.0033
      7 C          63.7997   83.0161   13.3228 C.3     1  UNL1        0.1338
      8 C          63.5703   83.4664   11.9105 C.3     1  UNL1        0.0298
      9 C          64.0429   82.2799   14.6069 C.2     1  UNL1        0.2437
     10 O          64.2191   80.7974   14.7536 O.2     1  UNL1       -0.2730
     11 N          64.0790   83.2863   15.7185 N.am    1  UNL1       -0.2682
     12 H          64.2225   83.0899   16.6725 H       1  UNL1        0.1563
     13 N          64.6544   91.7740   12.2930 N.ar    1  UNL1       -0.2967
     14 C          65.4768   91.2421   13.4291 C.ar    1  UNL1        0.1480
     15 N          65.0409   89.8320   13.6965 N.ar    1  UNL1       -0.2236
     16 C          63.9490   89.4924   12.7256 C.ar    1  UNL1        0.1346
     17 C          63.1414   88.2453   12.5193 C.ar    1  UNL1        0.1051
     18 N          62.0950   88.1985   11.4457 N.ar    1  UNL1       -0.2223
     19 C          61.8561   89.3987   10.5784 C.ar    1  UNL1        0.2003
     20 N          62.6637   90.6458   10.7846 N.ar    1  UNL1       -0.2049
     21 C          63.7101   90.6927   11.8583 C.ar    1  UNL1        0.1659
     22 C          66.5473   91.9892   14.1681 C.ar    1  UNL1        0.0725
     23 C          66.2118   92.7277   15.4298 C.ar    1  UNL1        0.1048
     24 N          67.2823   93.4748   16.1687 N.ar    1  UNL1       -0.2290
     25 C          68.6882   93.4833   15.6459 C.ar    1  UNL1        0.1396
     26 C          69.7587   94.2304   16.3849 C.3     1  UNL1        0.0737
     27 N          69.0237   92.7448   14.3842 N.ar    1  UNL1       -0.2290
     28 C          67.9532   91.9977   13.6453 C.ar    1  UNL1        0.1048
     29 C          65.7638   93.4216   10.6183 C.3     1  UNL1        0.0266
     30 C          64.7580   93.1464   11.6965 C.3     1  UNL1        0.1090
     31 N          63.8660   81.6488   12.7095 N.3     1  UNL1       -0.2872
     32 H          63.6276   80.9841   13.4455 H       1  UNL1        0.1240
     33 C          63.0045   81.3141   11.5281 C.3     1  UNL1        0.1020
     34 C          62.7399   79.8805   11.1748 C.3     1  UNL1        0.1484
     35 C          63.0165   80.1850    9.7323 C.3     1  UNL1        0.0368
     36 C          62.4634   79.5761   12.6174 C.3     1  UNL1        0.0368
     37 F          62.4754   78.4469   10.8216 F       1  UNL1       -0.2386
@<TRIPOS>BOND
     1    29    30    1
     2    30    13    1
     3    13    14   ar
     4    14    22    1
     5    22    23   ar
     6    23    24   ar
     7    24    25   ar
     8    25    26    1
     9    25    27   ar
    10    27    28   ar
    11    14    15   ar
    12    15    16   ar
    13    16    17   ar
    14    17     1    1
    15     1     2   ar
    16     2     3   ar
    17     3     4   ar
    18     4     5   ar
    19     5     6   ar
    20     5     7    1
    21     7     8    1
    22     7    31    1
    23    31    33    1
    24    33    34    1
    25    34    35    1
    26    34    36    1
    27    34    37    1
    28     7     9    1
    29     9    10    2
    30     9    11   am
    31    17    18   ar
    32    18    19   ar
    33    19    20   ar
    34    20    21   ar
    35    21    13   ar
    36    28    22   ar
    37    21    16   ar
    38     6     1   ar
    39    11     4    1
    40    31    32    1
    41    11    12    1
@<TRIPOS>MOLECULE
*****
 37 41 0 0 0
SMALL
GASTEIGER

@<TRIPOS>ATOM
      1 C          63.0941   90.5061   11.8873 C.ar    1  UNL1        0.0383
      2 C          63.0234   90.0500   13.3145 C.ar    1  UNL1        0.1018
      3 N          63.8915   90.6973   14.3526 N.ar    1  UNL1       -0.2292
      4 C          64.8302   91.8006   13.9634 C.ar    1  UNL1        0.1318
      5 C          64.9008   92.2567   12.5361 C.ar    1  UNL1        0.0306
      6 C          64.0328   91.6094   11.4981 C.ar    1  UNL1        0.0033
      7 C          65.9148   93.3588   12.4513 C.3     1  UNL1        0.1338
      8 C          65.5550   93.3643   10.9951 C.3     1  UNL1        0.0298
      9 C          66.4707   93.5840   13.8262 C.2     1  UNL1        0.2437
     10 O          67.5139   94.5947   14.2007 O.2     1  UNL1       -0.2730
     11 N          65.8004   92.6209   14.7606 N.am    1  UNL1       -0.2682
     12 H          65.9679   92.5413   15.7275 H       1  UNL1        0.1563
     13 N          61.3465   86.2302    9.9263 N.ar    1  UNL1       -0.2967
     14 C          62.2722   85.9589   11.0750 C.ar    1  UNL1        0.1480
     15 N          62.7510   87.2775   11.6059 N.ar    1  UNL1       -0.2236
     16 C          62.1212   88.3638   10.7853 C.ar    1  UNL1        0.1346
     17 C          62.2260   89.8588   10.8492 C.ar    1  UNL1        0.1051
     18 N          61.4628   90.7065    9.8751 N.ar    1  UNL1       -0.2223
     19 C          60.5948   90.0592    8.8371 C.ar    1  UNL1        0.2003
     20 N          60.4899   88.5642    8.7732 N.ar    1  UNL1       -0.2049
     21 C          61.2531   87.7165    9.7473 C.ar    1  UNL1        0.1659
     22 C          62.6523   84.6063   11.6006 C.ar    1  UNL1        0.0725
     23 C          62.3676   84.2496   13.0294 C.ar    1  UNL1        0.1048
     24 N          62.7477   82.8971   13.5549 N.ar    1  UNL1       -0.2290
     25 C          63.4125   81.9012   12.6514 C.ar    1  UNL1        0.1396
     26 C          63.7926   80.5486   13.1770 C.3     1  UNL1        0.0737
     27 N          63.6972   82.2578   11.2226 N.ar    1  UNL1       -0.2290
     28 C          63.3171   83.6104   10.6971 C.ar    1  UNL1        0.1048
     29 C          60.7046   85.2577    7.6042 C.3     1  UNL1        0.0266
     30 C          60.6384   85.1966    9.1015 C.3     1  UNL1        0.1090
     31 N          66.8535   94.4621   12.0621 N.3     1  UNL1       -0.2872
     32 H          67.6609   94.3940   12.6816 H       1  UNL1        0.1240
     33 C          67.3867   94.5342   10.6620 C.3     1  UNL1        0.1020
     34 C          67.0283   95.6946    9.7816 C.3     1  UNL1        0.1484
     35 C          67.3934   94.8885    8.5705 C.3     1  UNL1        0.0368
     36 C          66.6632   96.5007   10.9928 C.3     1  UNL1        0.0368
     37 F          66.6699   96.8550    8.9013 F       1  UNL1       -0.2386
@<TRIPOS>BOND
     1    29    30    1
     2    30    13    1
     3    13    14   ar
     4    14    22    1
     5    22    23   ar
     6    23    24   ar
     7    24    25   ar
     8    25    26    1
     9    25    27   ar
    10    27    28   ar
    11    14    15   ar
    12    15    16   ar
    13    16    17   ar
    14    17     1    1
    15     1     2   ar
    16     2     3   ar
    17     3     4   ar
    18     4     5   ar
    19     5     6   ar
    20     5     7    1
    21     7     8    1
    22     7    31    1
    23    31    33    1
    24    33    34    1
    25    34    35    1
    26    34    36    1
    27    34    37    1
    28     7     9    1
    29     9    10    2
    30     9    11   am
    31    17    18   ar
    32    18    19   ar
    33    19    20   ar
    34    20    21   ar
    35    21    13   ar
    36    28    22   ar
    37    21    16   ar
    38     6     1   ar
    39    11     4    1
    40    31    32    1
    41    11    12    1
@<TRIPOS>MOLECULE
*****
 37 41 0 0 0
SMALL
GASTEIGER

@<TRIPOS>ATOM
      1 C          63.3938   88.1950   13.4306 C.ar    1  UNL1        0.0383
      2 C          63.6151   86.7637   13.8208 C.ar    1  UNL1        0.1018
      3 N          63.2005   85.6606   12.8926 N.ar    1  UNL1       -0.2292
      4 C          62.5647   85.9889   11.5743 C.ar    1  UNL1        0.1318
      5 C          62.3435   87.4203   11.1841 C.ar    1  UNL1        0.0306
      6 C          62.7580   88.5234   12.1122 C.ar    1  UNL1        0.0033
      7 C          61.6983   87.4372    9.8301 C.3     1  UNL1        0.1338
      8 C          61.7429   88.9268   10.0011 C.3     1  UNL1        0.0298
      9 C          61.5209   86.0163    9.3834 C.2     1  UNL1        0.2437
     10 O          60.9144   85.5690    8.0864 O.2     1  UNL1       -0.2730
     11 N          62.0563   85.1212   10.4614 N.am    1  UNL1       -0.2682
     12 H          62.0714   84.1370   10.4419 H       1  UNL1        0.1563
     13 N          65.7072   92.6178   13.9505 N.ar    1  UNL1       -0.2967
     14 C          65.7434   92.1537   12.5245 C.ar    1  UNL1        0.1480
     15 N          65.0364   90.8330   12.4488 N.ar    1  UNL1       -0.2236
     16 C          64.5632   90.4808   13.8280 C.ar    1  UNL1        0.1346
     17 C          63.8084   89.2982   14.3587 C.ar    1  UNL1        0.1051
     18 N          63.4682   89.2186   15.8174 N.ar    1  UNL1       -0.2223
     19 C          63.8828   90.3217   16.7454 C.ar    1  UNL1        0.2003
     20 N          64.6376   91.5043   16.2148 N.ar    1  UNL1       -0.2049
     21 C          64.9778   91.5839   14.7561 C.ar    1  UNL1        0.1659
     22 C          66.3757   92.8825   11.3759 C.ar    1  UNL1        0.0725
     23 C          65.7406   94.1308   10.8389 C.ar    1  UNL1        0.1048
     24 N          66.3729   94.8595    9.6903 N.ar    1  UNL1       -0.2290
     25 C          67.6402   94.3399    9.0788 C.ar    1  UNL1        0.1396
     26 C          68.2725   95.0687    7.9302 C.3     1  UNL1        0.0737
     27 N          68.2752   93.0916    9.6158 N.ar    1  UNL1       -0.2290
     28 C          67.6430   92.3629   10.7644 C.ar    1  UNL1        0.1048
     29 C          67.5815   93.8601   15.2519 C.3     1  UNL1        0.0266
     30 C          66.2969   93.8921   14.4782 C.3     1  UNL1        0.1090
     31 N          61.0625   87.7655    8.5117 N.3     1  UNL1       -0.2872
     32 H          60.4984   86.9578    8.2476 H       1  UNL1        0.1240
     33 C          60.1789   88.9709    8.3847 C.3     1  UNL1        0.1020
     34 C          59.3434   89.1620    7.1537 C.3     1  UNL1        0.1484
     35 C          58.6308   87.8730    7.4373 C.3     1  UNL1        0.0368
     36 C          60.0560   90.4511    6.8702 C.3     1  UNL1        0.0368
     37 F          58.5079   89.3532    5.9227 F       1  UNL1       -0.2386
@<TRIPOS>BOND
     1    29    30    1
     2    30    13    1
     3    13    14   ar
     4    14    22    1
     5    22    23   ar
     6    23    24   ar
     7    24    25   ar
     8    25    26    1
     9    25    27   ar
    10    27    28   ar
    11    14    15   ar
    12    15    16   ar
    13    16    17   ar
    14    17     1    1
    15     1     2   ar
    16     2     3   ar
    17     3     4   ar
    18     4     5   ar
    19     5     6   ar
    20     5     7    1
    21     7     8    1
    22     7    31    1
    23    31    33    1
    24    33    34    1
    25    34    35    1
    26    34    36    1
    27    34    37    1
    28     7     9    1
    29     9    10    2
    30     9    11   am
    31    17    18   ar
    32    18    19   ar
    33    19    20   ar
    34    20    21   ar
    35    21    13   ar
    36    28    22   ar
    37    21    16   ar
    38     6     1   ar
    39    11     4    1
    40    31    32    1
    41    11    12    1
