@<TRIPOS>MOLECULE
*****
 12 13 0 0 0
SMALL
GASTEIGER

@<TRIPOS>ATOM
      1 C          68.3741   92.7221    9.0000 C.ar    1  UNL1        0.0207
      2 C          68.0112   94.1188    8.5908 C.ar    1  UNL1        0.0989
      3 N          67.0724   94.9279    9.4359 N.ar    1  UNL1       -0.2423
      4 C          66.4966   94.3402   10.6901 C.ar    1  UNL1        0.0989
      5 C          66.8595   92.9435   11.0992 C.ar    1  UNL1        0.0207
      6 C          67.7983   92.1345   10.2542 C.ar    1  UNL1        0.0032
      7 C          66.2837   92.3558   12.3535 C.ar    1  UNL1        0.0207
      8 C          67.1741   92.0741   13.5272 C.ar    1  UNL1        0.0032
      9 C          66.5982   91.4864   14.7815 C.ar    1  UNL1        0.0207
     10 C          65.1320   91.1804   14.8619 C.ar    1  UNL1        0.0989
     11 N          64.2415   91.4622   13.6880 N.ar    1  UNL1       -0.2423
     12 C          64.8174   92.0499   12.4339 C.ar    1  UNL1        0.0989
@<TRIPOS>BOND
     1     1     2   ar
     2     2     3   ar
     3     3     4   ar
     4     4     5   ar
     5     5     7    1
     6     7     8   ar
     7     8     9   ar
     8     9    10   ar
     9    10    11   ar
    10    11    12   ar
    11     5     6   ar
    12     6     1   ar
    13    12     7   ar
@<TRIPOS>MOLECULE
*****
 12 13 0 0 0
SMALL
GASTEIGER

@<TRIPOS>ATOM
      1 C          63.0370   85.3514    8.6852 C.ar    1  UNL1        0.0207
      2 C          62.2920   86.5824    9.1087 C.ar    1  UNL1        0.0989
      3 N          61.7660   86.6964   10.5088 N.ar    1  UNL1       -0.2423
      4 C          61.9850   85.5792   11.4855 C.ar    1  UNL1        0.0989
      5 C          62.7300   84.3481   11.0620 C.ar    1  UNL1        0.0207
      6 C          63.2560   84.2342    9.6619 C.ar    1  UNL1        0.0032
      7 C          62.9490   83.2309   12.0387 C.ar    1  UNL1        0.0207
      8 C          62.7179   81.8100   11.6171 C.ar    1  UNL1        0.0032
      9 C          62.9369   80.6928   12.5938 C.ar    1  UNL1        0.0207
     10 C          63.3871   80.9964   13.9921 C.ar    1  UNL1        0.0989
     11 N          63.6182   82.4174   14.4137 N.ar    1  UNL1       -0.2423
     12 C          63.3992   83.5345   13.4370 C.ar    1  UNL1        0.0989
@<TRIPOS>BOND
     1     1     2   ar
     2     2     3   ar
     3     3     4   ar
     4     4     5   ar
     5     5     7    1
     6     7     8   ar
     7     8     9   ar
     8     9    10   ar
     9    10    11   ar
    10    11    12   ar
    11     5     6   ar
    12     6     1   ar
    13    12     7   ar
@<TRIPOS>MOLECULE
*****
 12 13 0 0 0
SMALL
GASTEIGER

@<TRIPOS>ATOM
      1 C          62.9075   80.7028   12.6862 C.ar    1  UNL1        0.0207
      2 C          63.4201   81.0169   14.0604 C.ar    1  UNL1        0.0989
      3 N          63.7047   82.4377   14.4481 N.ar    1  UNL1       -0.2423
      4 C          63.4768   83.5444   13.4616 C.ar    1  UNL1        0.0989
      5 C          62.9642   83.2302   12.0874 C.ar    1  UNL1        0.0207
      6 C          62.6796   81.8095   11.6996 C.ar    1  UNL1        0.0032
      7 C          62.7363   84.3370   11.1008 C.ar    1  UNL1        0.0207
      8 C          63.2822   84.2246    9.7082 C.ar    1  UNL1        0.0032
      9 C          63.0543   85.3313    8.7216 C.ar    1  UNL1        0.0207
     10 C          62.2804   86.5503    9.1276 C.ar    1  UNL1        0.0989
     11 N          61.7344   86.6627   10.5203 N.ar    1  UNL1       -0.2423
     12 C          61.9623   85.5560   11.5068 C.ar    1  UNL1        0.0989
@<TRIPOS>BOND
     1     1     2   ar
     2     2     3   ar
     3     3     4   ar
     4     4     5   ar
     5     5     7    1
     6     7     8   ar
     7     8     9   ar
     8     9    10   ar
     9    10    11   ar
    10    11    12   ar
    11     5     6   ar
    12     6     1   ar
    13    12     7   ar
@<TRIPOS>MOLECULE
*****
 12 13 0 0 0
SMALL
GASTEIGER

@<TRIPOS>ATOM
      1 C          63.9945   83.4044   10.0415 C.ar    1  UNL1        0.0207
      2 C          63.9654   83.2095   11.5285 C.ar    1  UNL1        0.0989
      3 N          63.1399   84.1202   12.3883 N.ar    1  UNL1       -0.2423
      4 C          62.3436   85.2259   11.7611 C.ar    1  UNL1        0.0989
      5 C          62.3727   85.4208   10.2742 C.ar    1  UNL1        0.0207
      6 C          63.1981   84.5100    9.4144 C.ar    1  UNL1        0.0032
      7 C          61.5763   86.5264    9.6469 C.ar    1  UNL1        0.0207
      8 C          60.5031   86.2051    8.6495 C.ar    1  UNL1        0.0032
      9 C          59.7067   87.3108    8.0222 C.ar    1  UNL1        0.0207
     10 C          59.9837   88.7377    8.3924 C.ar    1  UNL1        0.0989
     11 N          61.0569   89.0590    9.3899 N.ar    1  UNL1       -0.2423
     12 C          61.8532   87.9534   10.0171 C.ar    1  UNL1        0.0989
@<TRIPOS>BOND
     1     1     2   ar
     2     2     3   ar
     3     3     4   ar
     4     4     5   ar
     5     5     7    1
     6     7     8   ar
     7     8     9   ar
     8     9    10   ar
     9    10    11   ar
    10    11    12   ar
    11     5     6   ar
    12     6     1   ar
    13    12     7   ar
@<TRIPOS>MOLECULE
*****
 12 13 0 0 0
SMALL
GASTEIGER

@<TRIPOS>ATOM
      1 C          59.7404   87.4885    8.2492 C.ar    1  UNL1        0.0207
      2 C          60.0991   88.8899    8.6456 C.ar    1  UNL1        0.0989
      3 N          61.2249   89.1326    9.6067 N.ar    1  UNL1       -0.2423
      4 C          61.9920   87.9739   10.1714 C.ar    1  UNL1        0.0989
      5 C          61.6333   86.5724    9.7749 C.ar    1  UNL1        0.0207
      6 C          60.5075   86.3297    8.8138 C.ar    1  UNL1        0.0032
      7 C          62.4004   85.4136   10.3395 C.ar    1  UNL1        0.0207
      8 C          63.2296   84.5510    9.4350 C.ar    1  UNL1        0.0032
      9 C          63.9967   83.3921    9.9997 C.ar    1  UNL1        0.0207
     10 C          63.9345   83.0960   11.4688 C.ar    1  UNL1        0.0989
     11 N          63.1052   83.9587   12.3733 N.ar    1  UNL1       -0.2423
     12 C          62.3382   85.1175   11.8087 C.ar    1  UNL1        0.0989
@<TRIPOS>BOND
     1     1     2   ar
     2     2     3   ar
     3     3     4   ar
     4     4     5   ar
     5     5     7    1
     6     7     8   ar
     7     8     9   ar
     8     9    10   ar
     9    10    11   ar
    10    11    12   ar
    11     5     6   ar
    12     6     1   ar
    13    12     7   ar
@<TRIPOS>MOLECULE
*****
 12 13 0 0 0
SMALL
GASTEIGER

@<TRIPOS>ATOM
      1 C          62.9135   87.8772   17.2647 C.ar    1  UNL1        0.0207
      2 C          63.2535   86.4832   16.8278 C.ar    1  UNL1        0.0989
      3 N          63.9468   86.2560   15.5172 N.ar    1  UNL1       -0.2423
      4 C          64.3001   87.4229   14.6435 C.ar    1  UNL1        0.0989
      5 C          63.9602   88.8170   15.0804 C.ar    1  UNL1        0.0207
      6 C          63.2669   89.0442   16.3910 C.ar    1  UNL1        0.0032
      7 C          64.3135   89.9840   14.2067 C.ar    1  UNL1        0.0207
      8 C          63.6978   90.1152   12.8453 C.ar    1  UNL1        0.0032
      9 C          64.0511   91.2822   11.9715 C.ar    1  UNL1        0.0207
     10 C          65.0202   92.3180   12.4594 C.ar    1  UNL1        0.0989
     11 N          65.6360   92.1868   13.8209 N.ar    1  UNL1       -0.2423
     12 C          65.2826   91.0198   14.6945 C.ar    1  UNL1        0.0989
@<TRIPOS>BOND
     1     1     2   ar
     2     2     3   ar
     3     3     4   ar
     4     4     5   ar
     5     5     7    1
     6     7     8   ar
     7     8     9   ar
     8     9    10   ar
     9    10    11   ar
    10    11    12   ar
    11     5     6   ar
    12     6     1   ar
    13    12     7   ar
@<TRIPOS>MOLECULE
*****
 12 13 0 0 0
SMALL
GASTEIGER

@<TRIPOS>ATOM
      1 C          64.0887   86.1012   15.4963 C.ar    1  UNL1        0.0207
      2 C          63.3059   86.3142   16.7579 C.ar    1  UNL1        0.0989
      3 N          62.8803   87.6975   17.1520 N.ar    1  UNL1       -0.2423
      4 C          63.2376   88.8678   16.2844 C.ar    1  UNL1        0.0989
      5 C          64.0204   88.6548   15.0228 C.ar    1  UNL1        0.0207
      6 C          64.4460   87.2715   14.6287 C.ar    1  UNL1        0.0032
      7 C          64.3778   89.8251   14.1552 C.ar    1  UNL1        0.0207
      8 C          65.5033   90.7349   14.5493 C.ar    1  UNL1        0.0032
      9 C          65.8607   91.9052   13.6816 C.ar    1  UNL1        0.0207
     10 C          65.0924   92.1657   12.4200 C.ar    1  UNL1        0.0989
     11 N          63.9667   91.2559   12.0259 N.ar    1  UNL1       -0.2423
     12 C          63.6095   90.0856   12.8935 C.ar    1  UNL1        0.0989
@<TRIPOS>BOND
     1     1     2   ar
     2     2     3   ar
     3     3     4   ar
     4     4     5   ar
     5     5     7    1
     6     7     8   ar
     7     8     9   ar
     8     9    10   ar
     9    10    11   ar
    10    11    12   ar
    11     5     6   ar
    12     6     1   ar
    13    12     7   ar
@<TRIPOS>MOLECULE
*****
 12 13 0 0 0
SMALL
GASTEIGER

@<TRIPOS>ATOM
      1 C          64.0137   91.0525   12.0221 C.ar    1  UNL1        0.0207
      2 C          64.8194   92.1936   12.5686 C.ar    1  UNL1        0.0989
      3 N          65.3138   92.1524   13.9841 N.ar    1  UNL1       -0.2423
      4 C          65.0026   90.9702   14.8532 C.ar    1  UNL1        0.0989
      5 C          64.1969   89.8291   14.3067 C.ar    1  UNL1        0.0207
      6 C          63.7025   89.8702   12.8912 C.ar    1  UNL1        0.0032
      7 C          63.8857   88.6467   15.1758 C.ar    1  UNL1        0.0207
      8 C          63.2095   88.8464   16.4998 C.ar    1  UNL1        0.0032
      9 C          62.8983   87.6640   17.3689 C.ar    1  UNL1        0.0207
     10 C          63.2632   86.2820   16.9139 C.ar    1  UNL1        0.0989
     11 N          63.9394   86.0824   15.5899 N.ar    1  UNL1       -0.2423
     12 C          64.2506   87.2647   14.7209 C.ar    1  UNL1        0.0989
@<TRIPOS>BOND
     1     1     2   ar
     2     2     3   ar
     3     3     4   ar
     4     4     5   ar
     5     5     7    1
     6     7     8   ar
     7     8     9   ar
     8     9    10   ar
     9    10    11   ar
    10    11    12   ar
    11     5     6   ar
    12     6     1   ar
    13    12     7   ar
@<TRIPOS>MOLECULE
*****
 12 13 0 0 0
SMALL
GASTEIGER

@<TRIPOS>ATOM
      1 C          64.2923   86.3078   15.4668 C.ar    1  UNL1        0.0207
      2 C          63.2366   86.1658   16.5229 C.ar    1  UNL1        0.0989
      3 N          62.2120   85.0754   16.4173 N.ar    1  UNL1       -0.2423
      4 C          62.2431   84.1269   15.2557 C.ar    1  UNL1        0.0989
      5 C          63.2987   84.2689   14.1996 C.ar    1  UNL1        0.0207
      6 C          64.3233   85.3593   14.3052 C.ar    1  UNL1        0.0032
      7 C          63.3298   83.3204   13.0379 C.ar    1  UNL1        0.0207
      8 C          64.0128   83.7181   11.7631 C.ar    1  UNL1        0.0032
      9 C          64.0439   82.7696   10.6014 C.ar    1  UNL1        0.0207
     10 C          63.3921   81.4234   10.7146 C.ar    1  UNL1        0.0989
     11 N          62.7091   81.0257   11.9896 N.ar    1  UNL1       -0.2423
     12 C          62.6780   81.9742   13.1512 C.ar    1  UNL1        0.0989
@<TRIPOS>BOND
     1     1     2   ar
     2     2     3   ar
     3     3     4   ar
     4     4     5   ar
     5     5     7    1
     6     7     8   ar
     7     8     9   ar
     8     9    10   ar
     9    10    11   ar
    10    11    12   ar
    11     5     6   ar
    12     6     1   ar
    13    12     7   ar
