@<TRIPOS>MOLECULE
*****
 47 53 0 0 0
SMALL
GASTEIGER

@<TRIPOS>ATOM
      1 N          60.4154   90.1556    7.0246 N.ar    1  UNL1       -0.2359
      2 N          61.3904   90.5230    8.1037 N.ar    1  UNL1       -0.1682
      3 C          61.2970   89.4875    9.1849 C.ar    1  UNL1        0.1030
      4 C          60.2643   88.4801    8.7740 C.ar    1  UNL1        0.0857
      5 C          59.7497   87.2402    9.4431 C.ar    1  UNL1        0.1316
      6 N          60.2946   86.8273   10.7783 N.pl3   1  UNL1       -0.3425
      7 N          58.6903   86.4132    8.7771 N.ar    1  UNL1       -0.2093
      8 C          58.1454   86.8262    7.4420 C.ar    1  UNL1        0.2014
      9 N          58.6600   88.0661    6.7728 N.ar    1  UNL1       -0.2050
     10 C          59.7195   88.8930    7.4389 C.ar    1  UNL1        0.1652
     11 H          60.9899   87.3701   11.2154 H       1  UNL1        0.1437
     12 H          59.9568   86.0135   11.2175 H       1  UNL1        0.1437
     13 C          62.0960   89.4635   10.4541 C.2     1  UNL1        0.0059
     14 C          62.4616   88.1530   11.0856 C.2     1  UNL1        0.0017
     15 C          63.2606   88.1290   12.3549 C.2     1  UNL1        0.0499
     16 C          63.6941   89.4156   12.9927 C.2     1  UNL1        0.2317
     17 N          64.4837   89.7039   14.2349 N.2     1  UNL1       -0.0347
     18 C          64.6063   91.1927   14.3712 C.2     1  UNL1        0.3557
     19 N          63.8923   91.8244   13.2132 N.2     1  UNL1       -0.0385
     20 C          63.3285   90.7262   12.3612 C.2     1  UNL1        0.2175
     21 C          62.5295   90.7501   11.0919 C.3     1  UNL1        0.1056
     22 C          65.3178   91.9217   15.4722 C.3     1  UNL1        0.1531
     23 C          66.7871   92.2015   15.3592 C.ar    1  UNL1        0.0242
     24 C          67.5923   92.4915   16.5911 C.ar    1  UNL1       -0.0007
     25 C          69.0616   92.7713   16.4781 C.ar    1  UNL1       -0.0001
     26 C          69.7258   92.7611   15.1332 C.ar    1  UNL1        0.0031
     27 C          68.9207   92.4712   13.9013 C.ar    1  UNL1        0.0366
     28 C          67.4513   92.1913   14.0143 C.ar    1  UNL1        0.1353
     29 O          66.6463   91.9014   12.7823 O.3     1  UNL1       -0.4717
     30 C          66.9275   92.6449   11.5103 C.3     1  UNL1        0.2525
     31 C          59.7034   92.4400    3.2134 C.3     1  UNL1        0.0577
     32 C          61.0898   91.9942    3.5728 C.3     1  UNL1        0.0179
     33 C          61.3272   91.2328    4.8432 C.3     1  UNL1        0.0258
     34 C          60.1781   90.9171    5.7542 C.3     1  UNL1        0.1069
     35 C          58.7917   91.3628    5.3948 C.3     1  UNL1        0.0258
     36 C          58.5544   92.1243    4.1245 C.3     1  UNL1        0.0179
     37 N          58.9914   94.7245   -0.5976 N.3     1  UNL1       -0.2702
     38 C          58.4222   93.3467   -0.4316 C.3     1  UNL1        0.0897
     39 C          58.6595   92.5851    0.8387 C.3     1  UNL1        0.0896
     40 N          59.4661   93.2015    1.9431 N.3     1  UNL1       -0.2716
     41 C          60.0353   94.5793    1.7771 C.3     1  UNL1        0.0896
     42 C          59.7980   95.3408    0.5068 C.3     1  UNL1        0.0897
     43 C          58.7540   95.4859   -1.8679 C.3     1  UNL1        0.0748
     44 C          58.4865   94.7478   -3.1460 C.3     1  UNL1        0.0494
     45 C          57.0844   94.6334   -3.6667 C.3     1  UNL1        0.1437
     46 C          55.1469   94.7970   -1.9435 C.3     1  UNL1        0.1741
     47 O          56.0269   93.9710   -2.8343 O.3     1  UNL1       -0.3511
@<TRIPOS>BOND
     1    46    47    1
     2    47    45    1
     3    45    44    1
     4    44    43    1
     5    43    37    1
     6    37    38    1
     7    38    39    1
     8    39    40    1
     9    31    40    1
    10    31    32    1
    11    32    33    1
    12    33    34    1
    13    34     1    1
    14     1     2   ar
    15     2     3   ar
    16     3    13    1
    17    13    14    2
    18    14    15    1
    19    15    16    2
    20    16    17    1
    21    17    18    2
    22    18    22    1
    23    22    23    1
    24    23    24   ar
    25    24    25   ar
    26    25    26   ar
    27    26    27   ar
    28    27    28   ar
    29    28    29    1
    30    29    30    1
    31    18    19    1
    32    19    20    2
    33    20    21    1
    34     3     4   ar
    35     4     5   ar
    36     5     6    1
    37     5     7   ar
    38     7     8   ar
    39     8     9   ar
    40     9    10   ar
    41    34    35    1
    42    35    36    1
    43    40    41    1
    44    41    42    1
    45    42    37    1
    46    36    31    1
    47    10     1   ar
    48    21    13    1
    49    10     4   ar
    50    20    16    1
    51    28    23   ar
    52     6    11    1
    53     6    12    1
@<TRIPOS>MOLECULE
*****
 47 53 0 0 0
SMALL
GASTEIGER

@<TRIPOS>ATOM
      1 N          60.4253   90.1721    7.0131 N.ar    1  UNL1       -0.2359
      2 N          61.4030   90.5385    8.0900 N.ar    1  UNL1       -0.1682
      3 C          61.3112   89.5028    9.1712 C.ar    1  UNL1        0.1030
      4 C          60.2768   88.4964    8.7625 C.ar    1  UNL1        0.0857
      5 C          59.7628   87.2568    9.4326 C.ar    1  UNL1        0.1316
      6 N          60.3103   86.8431   10.7664 N.pl3   1  UNL1       -0.3425
      7 N          58.7011   86.4308    8.7688 N.ar    1  UNL1       -0.2093
      8 C          58.1536   86.8444    7.4350 C.ar    1  UNL1        0.2014
      9 N          58.6676   88.0840    6.7649 N.ar    1  UNL1       -0.2050
     10 C          59.7292   88.9100    7.4287 C.ar    1  UNL1        0.1652
     11 H          61.0071   87.3853   11.2021 H       1  UNL1        0.1437
     12 H          59.9729   86.0295   11.2062 H       1  UNL1        0.1437
     13 C          62.1131   89.4780   10.4387 C.2     1  UNL1        0.0059
     14 C          62.4681   88.1674   11.0760 C.2     1  UNL1        0.0017
     15 C          63.2700   88.1426   12.3434 C.2     1  UNL1        0.0499
     16 C          63.7169   89.4284   12.9735 C.2     1  UNL1        0.2317
     17 N          64.5123   89.7157   14.2124 N.2     1  UNL1       -0.0347
     18 C          64.6489   91.2040   14.3407 C.2     1  UNL1        0.3557
     19 N          63.9379   91.8364   13.1811 N.2     1  UNL1       -0.0385
     20 C          63.3619   90.7390   12.3362 C.2     1  UNL1        0.2175
     21 C          62.5601   90.7638   11.0688 C.3     1  UNL1        0.1056
     22 C          65.3698   91.9320   15.4362 C.3     1  UNL1        0.1531
     23 C          66.8434   92.1885   15.3229 C.ar    1  UNL1        0.0242
     24 C          67.6502   92.4825   16.5528 C.ar    1  UNL1       -0.0007
     25 C          69.1238   92.7390   16.4396 C.ar    1  UNL1       -0.0001
     26 C          69.7905   92.7016   15.0965 C.ar    1  UNL1        0.0031
     27 C          68.9838   92.4076   13.8666 C.ar    1  UNL1        0.0366
     28 C          67.5102   92.1511   13.9798 C.ar    1  UNL1        0.1353
     29 O          66.7035   91.8571   12.7499 O.3     1  UNL1       -0.4717
     30 C          66.8393   92.7297   11.5375 C.3     1  UNL1        0.2525
     31 C          59.7062   92.4578    3.2041 C.3     1  UNL1        0.0577
     32 C          58.5615   92.1565    4.1254 C.3     1  UNL1        0.0179
     33 C          58.8011   91.3946    5.3950 C.3     1  UNL1        0.0258
     34 C          60.1856   90.9340    5.7434 C.3     1  UNL1        0.1069
     35 C          61.3302   91.2354    4.8221 C.3     1  UNL1        0.0258
     36 C          61.0905   91.9973    3.5524 C.3     1  UNL1        0.0179
     37 N          58.9872   94.7436   -0.6049 N.3     1  UNL1       -0.2702
     38 C          58.4806   93.3386   -0.4664 C.3     1  UNL1        0.0897
     39 C          58.7203   92.5766    0.8032 C.3     1  UNL1        0.0896
     40 N          59.4665   93.2197    1.9344 N.3     1  UNL1       -0.2716
     41 C          59.9731   94.6247    1.7959 C.3     1  UNL1        0.0896
     42 C          59.7335   95.3867    0.5263 C.3     1  UNL1        0.0897
     43 C          58.7476   95.5055   -1.8746 C.3     1  UNL1        0.0748
     44 C          59.6952   95.3581   -3.0279 C.3     1  UNL1        0.0494
     45 C          61.1349   95.0198   -2.7773 C.3     1  UNL1        0.1437
     46 C          62.5445   93.4271   -1.2853 C.3     1  UNL1        0.1741
     47 O          61.5172   93.6310   -2.3592 O.3     1  UNL1       -0.3511
@<TRIPOS>BOND
     1    46    47    1
     2    47    45    1
     3    45    44    1
     4    44    43    1
     5    43    37    1
     6    37    38    1
     7    38    39    1
     8    39    40    1
     9    31    40    1
    10    31    32    1
    11    32    33    1
    12    33    34    1
    13    34     1    1
    14     1     2   ar
    15     2     3   ar
    16     3    13    1
    17    13    14    2
    18    14    15    1
    19    15    16    2
    20    16    17    1
    21    17    18    2
    22    18    22    1
    23    22    23    1
    24    23    24   ar
    25    24    25   ar
    26    25    26   ar
    27    26    27   ar
    28    27    28   ar
    29    28    29    1
    30    29    30    1
    31    18    19    1
    32    19    20    2
    33    20    21    1
    34     3     4   ar
    35     4     5   ar
    36     5     6    1
    37     5     7   ar
    38     7     8   ar
    39     8     9   ar
    40     9    10   ar
    41    34    35    1
    42    35    36    1
    43    40    41    1
    44    41    42    1
    45    42    37    1
    46    36    31    1
    47    10     1   ar
    48    21    13    1
    49    10     4   ar
    50    20    16    1
    51    28    23   ar
    52     6    11    1
    53     6    12    1
@<TRIPOS>MOLECULE
*****
 47 53 0 0 0
SMALL
GASTEIGER

@<TRIPOS>ATOM
      1 N          63.9737   87.1127   14.1041 N.ar    1  UNL1       -0.2359
      2 N          64.6726   88.2512   13.4219 N.ar    1  UNL1       -0.1682
      3 C          64.6426   89.4332   14.3449 C.ar    1  UNL1        0.1030
      4 C          63.9252   89.0253   15.5974 C.ar    1  UNL1        0.0857
      5 C          63.5949   89.7745   16.8542 C.ar    1  UNL1        0.1316
      6 N          64.0084   91.2087   17.0030 N.pl3   1  UNL1       -0.3425
      7 N          62.8512   89.0895   17.9622 N.ar    1  UNL1       -0.2093
      8 C          62.4378   87.6553   17.8134 C.ar    1  UNL1        0.2014
      9 N          62.7680   86.9061   16.5566 N.ar    1  UNL1       -0.2050
     10 C          63.5117   87.5911   15.4486 C.ar    1  UNL1        0.1652
     11 H          64.4965   91.6583   16.2758 H       1  UNL1        0.1437
     12 H          63.7916   91.7005   17.8279 H       1  UNL1        0.1437
     13 C          65.2274   90.7858   14.0645 C.2     1  UNL1        0.0059
     14 C          66.2303   91.3797   15.0086 C.2     1  UNL1        0.0017
     15 C          66.8151   92.7322   14.7282 C.2     1  UNL1        0.0499
     16 C          66.3970   93.4910   13.5037 C.2     1  UNL1        0.2317
     17 N          66.7984   94.8337   12.9691 N.2     1  UNL1       -0.0347
     18 C          66.0436   95.0698   11.6946 C.2     1  UNL1        0.3557
     19 N          65.1756   93.8729   11.4414 N.2     1  UNL1       -0.0385
     20 C          65.3940   92.8971   12.5595 C.2     1  UNL1        0.2175
     21 C          64.8092   91.5445   12.8399 C.3     1  UNL1        0.1056
     22 C          66.1397   96.2886   10.8257 C.3     1  UNL1        0.1531
     23 C          66.1473   96.1466    9.3324 C.ar    1  UNL1        0.0242
     24 C          65.1154   96.8558    8.5064 C.ar    1  UNL1       -0.0007
     25 C          65.1230   96.7137    7.0131 C.ar    1  UNL1       -0.0001
     26 C          66.1623   95.8626    6.3459 C.ar    1  UNL1        0.0031
     27 C          67.1942   95.1534    7.1720 C.ar    1  UNL1        0.0366
     28 C          67.1866   95.2954    8.6652 C.ar    1  UNL1        0.1353
     29 O          68.2185   94.5863    9.4912 O.3     1  UNL1       -0.4717
     30 C          68.2974   93.0885    9.4688 C.3     1  UNL1        0.2525
     31 C          63.3689   82.9862   12.4139 C.3     1  UNL1        0.0577
     32 C          64.2370   83.1823   13.6214 C.3     1  UNL1        0.0179
     33 C          64.4386   84.5578   14.1848 C.3     1  UNL1        0.0258
     34 C          63.7721   85.7372   13.5407 C.3     1  UNL1        0.1069
     35 C          62.9040   85.5411   12.3333 C.3     1  UNL1        0.0258
     36 C          62.7024   84.1656   11.7698 C.3     1  UNL1        0.0179
     37 N          62.7640   78.8598   10.7238 N.3     1  UNL1       -0.2702
     38 C          63.1785   79.9856    9.8234 C.3     1  UNL1        0.0897
     39 C          63.3802   81.3612   10.3868 C.3     1  UNL1        0.0896
     40 N          63.1673   81.6107   11.8505 N.3     1  UNL1       -0.2716
     41 C          62.7528   80.4849   12.7508 C.3     1  UNL1        0.0896
     42 C          62.5511   79.1094   12.1875 C.3     1  UNL1        0.0897
     43 C          62.5624   77.4843   10.1604 C.3     1  UNL1        0.0748
     44 C          63.7024   76.5098   10.1347 C.3     1  UNL1        0.0494
     45 C          64.7671   76.6285    9.0848 C.3     1  UNL1        0.1437
     46 C          64.7654   74.8393    7.2009 C.3     1  UNL1        0.1741
     47 O          65.3512   75.3932    8.4659 O.3     1  UNL1       -0.3511
@<TRIPOS>BOND
     1    46    47    1
     2    47    45    1
     3    45    44    1
     4    44    43    1
     5    43    37    1
     6    37    38    1
     7    38    39    1
     8    39    40    1
     9    31    40    1
    10    31    32    1
    11    32    33    1
    12    33    34    1
    13    34     1    1
    14     1     2   ar
    15     2     3   ar
    16     3    13    1
    17    13    14    2
    18    14    15    1
    19    15    16    2
    20    16    17    1
    21    17    18    2
    22    18    22    1
    23    22    23    1
    24    23    24   ar
    25    24    25   ar
    26    25    26   ar
    27    26    27   ar
    28    27    28   ar
    29    28    29    1
    30    29    30    1
    31    18    19    1
    32    19    20    2
    33    20    21    1
    34     3     4   ar
    35     4     5   ar
    36     5     6    1
    37     5     7   ar
    38     7     8   ar
    39     8     9   ar
    40     9    10   ar
    41    34    35    1
    42    35    36    1
    43    40    41    1
    44    41    42    1
    45    42    37    1
    46    36    31    1
    47    10     1   ar
    48    21    13    1
    49    10     4   ar
    50    20    16    1
    51    28    23   ar
    52     6    11    1
    53     6    12    1
@<TRIPOS>MOLECULE
*****
 47 53 0 0 0
SMALL
GASTEIGER

@<TRIPOS>ATOM
      1 N          60.1210   89.4214    6.7438 N.ar    1  UNL1       -0.2359
      2 N          61.0090   90.2513    5.8648 N.ar    1  UNL1       -0.1682
      3 C          60.1337   91.0884    4.9799 C.ar    1  UNL1        0.1030
      4 C          58.7047   90.7758    5.3120 C.ar    1  UNL1        0.0857
      5 C          57.4096   91.2963    4.7627 C.ar    1  UNL1        0.1316
      6 N          57.4174   92.3265    3.6725 N.pl3   1  UNL1       -0.3425
      7 N          56.1067   90.7864    5.3035 N.ar    1  UNL1       -0.2093
      8 C          56.0989   89.7562    6.3936 C.ar    1  UNL1        0.2014
      9 N          57.3940   89.2358    6.9430 N.ar    1  UNL1       -0.2050
     10 C          58.6969   89.7456    6.4022 C.ar    1  UNL1        0.1652
     11 H          58.2725   92.6611    3.3175 H       1  UNL1        0.1437
     12 H          56.5674   92.6681    3.3119 H       1  UNL1        0.1437
     13 C          60.6046   92.0663    3.9446 C.2     1  UNL1        0.0059
     14 C          59.7745   93.2727    3.6199 C.2     1  UNL1        0.0017
     15 C          60.2454   94.2506    2.5845 C.2     1  UNL1        0.0499
     16 C          61.5465   94.0222    1.8739 C.2     1  UNL1        0.2317
     17 N          62.2630   94.8065    0.8149 N.2     1  UNL1       -0.0347
     18 C          63.5359   94.0848    0.4851 C.2     1  UNL1        0.3557
     19 N          63.6062   92.8545    1.3403 N.2     1  UNL1       -0.0385
     20 C          62.3766   92.8158    2.1986 C.2     1  UNL1        0.2175
     21 C          61.9057   91.8378    3.2339 C.3     1  UNL1        0.1056
     22 C          64.5590   94.5175   -0.5229 C.3     1  UNL1        0.1531
     23 C          64.1332   94.8850   -1.9135 C.ar    1  UNL1        0.0242
     24 C          64.8536   95.9711   -2.6560 C.ar    1  UNL1       -0.0007
     25 C          64.4279   96.3386   -4.0466 C.ar    1  UNL1       -0.0001
     26 C          63.2817   95.6200   -4.6946 C.ar    1  UNL1        0.0031
     27 C          62.5613   94.5339   -3.9521 C.ar    1  UNL1        0.0366
     28 C          62.9871   94.1664   -2.5615 C.ar    1  UNL1        0.1353
     29 O          62.2666   93.0803   -1.8190 O.3     1  UNL1       -0.4717
     30 C          60.7671   93.0627   -1.7845 C.3     1  UNL1        0.2525
     31 C          61.4892   86.4762    9.8589 C.3     1  UNL1        0.0577
     32 C          60.7896   85.9909    8.6240 C.3     1  UNL1        0.0179
     33 C          60.3336   86.9726    7.5856 C.3     1  UNL1        0.0258
     34 C          60.5771   88.4397    7.7822 C.3     1  UNL1        0.1069
     35 C          61.2767   88.9249    9.0171 C.3     1  UNL1        0.0258
     36 C          61.7327   87.9431   10.0555 C.3     1  UNL1        0.0179
     37 N          62.8574   83.5309   12.9739 N.3     1  UNL1       -0.2702
     38 C          62.3032   84.8608   13.3914 C.3     1  UNL1        0.0897
     39 C          61.8471   85.8426   12.3530 C.3     1  UNL1        0.0896
     40 N          61.9453   85.4944   10.8973 N.3     1  UNL1       -0.2716
     41 C          62.4996   84.1646   10.4799 C.3     1  UNL1        0.0896
     42 C          62.9557   83.1828   11.5182 C.3     1  UNL1        0.0897
     43 C          63.3135   82.5492   14.0123 C.3     1  UNL1        0.0748
     44 C          63.2168   81.0763   13.7457 C.3     1  UNL1        0.0494
     45 C          61.8767   80.4413   13.5201 C.3     1  UNL1        0.1437
     46 C          59.4065   80.1678   14.2773 C.3     1  UNL1        0.1741
     47 O          60.6629   80.9848   14.2139 O.3     1  UNL1       -0.3511
@<TRIPOS>BOND
     1    46    47    1
     2    47    45    1
     3    45    44    1
     4    44    43    1
     5    43    37    1
     6    37    38    1
     7    38    39    1
     8    39    40    1
     9    31    40    1
    10    31    32    1
    11    32    33    1
    12    33    34    1
    13    34     1    1
    14     1     2   ar
    15     2     3   ar
    16     3    13    1
    17    13    14    2
    18    14    15    1
    19    15    16    2
    20    16    17    1
    21    17    18    2
    22    18    22    1
    23    22    23    1
    24    23    24   ar
    25    24    25   ar
    26    25    26   ar
    27    26    27   ar
    28    27    28   ar
    29    28    29    1
    30    29    30    1
    31    18    19    1
    32    19    20    2
    33    20    21    1
    34     3     4   ar
    35     4     5   ar
    36     5     6    1
    37     5     7   ar
    38     7     8   ar
    39     8     9   ar
    40     9    10   ar
    41    34    35    1
    42    35    36    1
    43    40    41    1
    44    41    42    1
    45    42    37    1
    46    36    31    1
    47    10     1   ar
    48    21    13    1
    49    10     4   ar
    50    20    16    1
    51    28    23   ar
    52     6    11    1
    53     6    12    1
@<TRIPOS>MOLECULE
*****
 47 53 0 0 0
SMALL
GASTEIGER

@<TRIPOS>ATOM
      1 N          59.9149   89.8483    6.5899 N.ar    1  UNL1       -0.2359
      2 N          60.6933   90.6817    5.6154 N.ar    1  UNL1       -0.1682
      3 C          59.7150   91.3831    4.7205 C.ar    1  UNL1        0.1030
      4 C          58.3320   90.9833    5.1419 C.ar    1  UNL1        0.0857
      5 C          56.9762   91.3604    4.6229 C.ar    1  UNL1        0.1316
      6 N          56.8526   92.3090    3.4675 N.pl3   1  UNL1       -0.3425
      7 N          55.7440   90.7889    5.2592 N.ar    1  UNL1       -0.2093
      8 C          55.8675   89.8404    6.4146 C.ar    1  UNL1        0.2014
      9 N          57.2234   89.4632    6.9337 N.ar    1  UNL1       -0.2050
     10 C          58.4556   90.0347    6.2973 C.ar    1  UNL1        0.1652
     11 H          57.6614   92.6840    3.0498 H       1  UNL1        0.1437
     12 H          55.9627   92.5565    3.1268 H       1  UNL1        0.1437
     13 C          60.0591   92.3199    3.6007 C.2     1  UNL1        0.0059
     14 C          59.9042   93.8002    3.7868 C.2     1  UNL1        0.0017
     15 C          60.2484   94.7370    2.6670 C.2     1  UNL1        0.0499
     16 C          60.7475   94.1935    1.3611 C.2     1  UNL1        0.2317
     17 N          61.1627   94.8669    0.0867 N.2     1  UNL1       -0.0347
     18 C          61.5743   93.8028   -0.8871 C.2     1  UNL1        0.3557
     19 N          61.4135   92.4717   -0.2145 N.2     1  UNL1       -0.0385
     20 C          60.9025   92.7132    1.1750 C.2     1  UNL1        0.2175
     21 C          60.5584   91.7764    2.2947 C.3     1  UNL1        0.1056
     22 C          62.0612   94.0298   -2.2875 C.3     1  UNL1        0.1531
     23 C          61.0787   94.1266   -3.4168 C.ar    1  UNL1        0.0242
     24 C          59.6482   93.7295   -3.2025 C.ar    1  UNL1       -0.0007
     25 C          58.6657   93.8263   -4.3318 C.ar    1  UNL1       -0.0001
     26 C          59.1137   94.3202   -5.6754 C.ar    1  UNL1        0.0031
     27 C          60.5441   94.7174   -5.8897 C.ar    1  UNL1        0.0366
     28 C          61.5267   94.6206   -4.7604 C.ar    1  UNL1        0.1353
     29 O          62.9571   95.0177   -4.9748 O.3     1  UNL1       -0.4717
     30 C          63.9150   94.0560   -5.6132 C.3     1  UNL1        0.2525
     31 C          61.6528   87.2459    9.8238 C.3     1  UNL1        0.0577
     32 C          61.7873   88.7375    9.9082 C.3     1  UNL1        0.0179
     33 C          61.2081   89.6050    8.8303 C.3     1  UNL1        0.0258
     34 C          60.4942   88.9808    7.6679 C.3     1  UNL1        0.1069
     35 C          60.3597   87.4893    7.5836 C.3     1  UNL1        0.0258
     36 C          60.9390   86.6219    8.6615 C.3     1  UNL1        0.0179
     37 N          63.3906   84.6434   13.0575 N.3     1  UNL1       -0.2702
     38 C          63.3479   86.1322   13.2350 C.3     1  UNL1        0.0897
     39 C          62.7687   86.9998   12.1571 C.3     1  UNL1        0.0896
     40 N          62.2321   86.3785   10.9017 N.3     1  UNL1       -0.2716
     41 C          62.2747   84.8896   10.7242 C.3     1  UNL1        0.0896
     42 C          62.8540   84.0221   11.8021 C.3     1  UNL1        0.0897
     43 C          63.9699   83.7759   14.1354 C.3     1  UNL1        0.0748
     44 C          63.0631   83.0838   15.1094 C.3     1  UNL1        0.0494
     45 C          62.0091   82.1394   14.6122 C.3     1  UNL1        0.1437
     46 C          62.5535   80.2593   12.9038 C.3     1  UNL1        0.1741
     47 O          62.3596   80.7103   14.3212 O.3     1  UNL1       -0.3511
@<TRIPOS>BOND
     1    46    47    1
     2    47    45    1
     3    45    44    1
     4    44    43    1
     5    43    37    1
     6    37    38    1
     7    38    39    1
     8    39    40    1
     9    31    40    1
    10    31    32    1
    11    32    33    1
    12    33    34    1
    13    34     1    1
    14     1     2   ar
    15     2     3   ar
    16     3    13    1
    17    13    14    2
    18    14    15    1
    19    15    16    2
    20    16    17    1
    21    17    18    2
    22    18    22    1
    23    22    23    1
    24    23    24   ar
    25    24    25   ar
    26    25    26   ar
    27    26    27   ar
    28    27    28   ar
    29    28    29    1
    30    29    30    1
    31    18    19    1
    32    19    20    2
    33    20    21    1
    34     3     4   ar
    35     4     5   ar
    36     5     6    1
    37     5     7   ar
    38     7     8   ar
    39     8     9   ar
    40     9    10   ar
    41    34    35    1
    42    35    36    1
    43    40    41    1
    44    41    42    1
    45    42    37    1
    46    36    31    1
    47    10     1   ar
    48    21    13    1
    49    10     4   ar
    50    20    16    1
    51    28    23   ar
    52     6    11    1
    53     6    12    1
@<TRIPOS>MOLECULE
*****
 47 53 0 0 0
SMALL
GASTEIGER

@<TRIPOS>ATOM
      1 N          60.1392   89.4355    6.6624 N.ar    1  UNL1       -0.2359
      2 N          61.0446   90.2107    5.7517 N.ar    1  UNL1       -0.1682
      3 C          60.1879   91.0535    4.8541 C.ar    1  UNL1        0.1030
      4 C          58.7531   90.7992    5.2099 C.ar    1  UNL1        0.0857
      5 C          57.4702   91.3490    4.6607 C.ar    1  UNL1        0.1316
      6 N          57.5003   92.3490    3.5431 N.pl3   1  UNL1       -0.3425
      7 N          56.1571   90.8987    5.2291 N.ar    1  UNL1       -0.2093
      8 C          56.1270   89.8987    6.3467 C.ar    1  UNL1        0.2014
      9 N          57.4100   89.3489    6.8959 N.ar    1  UNL1       -0.2050
     10 C          58.7230   89.7992    6.3275 C.ar    1  UNL1        0.1652
     11 H          58.3621   92.6445    3.1701 H       1  UNL1        0.1437
     12 H          56.6582   92.7099    3.1826 H       1  UNL1        0.1437
     13 C          60.6797   91.9868    3.7877 C.2     1  UNL1        0.0059
     14 C          62.0824   91.8630    3.2712 C.2     1  UNL1        0.0017
     15 C          62.5742   92.7963    2.2048 C.2     1  UNL1        0.0499
     16 C          61.6632   93.8536    1.6551 C.2     1  UNL1        0.2317
     17 N          61.8665   94.9083    0.6081 N.2     1  UNL1       -0.0347
     18 C          60.5894   95.6841    0.4775 C.2     1  UNL1        0.3557
     19 N          59.5968   95.1088    1.4439 N.2     1  UNL1       -0.0385
     20 C          60.2605   93.9775    2.1716 C.2     1  UNL1        0.2175
     21 C          59.7687   93.0442    3.2380 C.3     1  UNL1        0.1056
     22 C          60.3473   96.8333   -0.4554 C.3     1  UNL1        0.1531
     23 C          60.0954   96.5770   -1.9118 C.ar    1  UNL1        0.0242
     24 C          61.2174   96.6992   -2.8998 C.ar    1  UNL1       -0.0007
     25 C          60.9655   96.4429   -4.3561 C.ar    1  UNL1       -0.0001
     26 C          59.5917   96.0642   -4.8244 C.ar    1  UNL1        0.0031
     27 C          58.4697   95.9420   -3.8363 C.ar    1  UNL1        0.0366
     28 C          58.7216   96.1983   -2.3800 C.ar    1  UNL1        0.1353
     29 O          57.5996   96.0760   -1.3920 O.3     1  UNL1       -0.4717
     30 C          56.9568   94.7428   -1.1483 C.3     1  UNL1        0.2525
     31 C          61.4427   86.5288    9.8408 C.3     1  UNL1        0.0577
     32 C          60.8532   86.0226    8.5578 C.3     1  UNL1        0.0179
     33 C          60.4187   86.9914    7.4983 C.3     1  UNL1        0.0258
     34 C          60.5737   88.4666    7.7219 C.3     1  UNL1        0.1069
     35 C          61.1633   88.9728    9.0048 C.3     1  UNL1        0.0258
     36 C          61.5978   88.0039   10.0643 C.3     1  UNL1        0.0179
     37 N          62.7462   83.6224   13.0194 N.3     1  UNL1       -0.2702
     38 C          62.6903   83.1891   11.5845 C.3     1  UNL1        0.0897
     39 C          62.2558   84.1579   10.5249 C.3     1  UNL1        0.0896
     40 N          61.8772   85.5600   10.9003 N.3     1  UNL1       -0.2716
     41 C          61.9332   85.9932   12.3353 C.3     1  UNL1        0.0896
     42 C          62.3677   85.0244   13.3949 C.3     1  UNL1        0.0897
     43 C          63.1807   82.6536   14.0789 C.3     1  UNL1        0.0748
     44 C          63.2246   81.1844   13.7793 C.3     1  UNL1        0.0494
     45 C          61.9753   80.3605   13.8819 C.3     1  UNL1        0.1437
     46 C          59.3988   80.2846   14.2069 C.3     1  UNL1        0.1741
     47 O          60.7150   80.9726   14.4175 O.3     1  UNL1       -0.3511
@<TRIPOS>BOND
     1    46    47    1
     2    47    45    1
     3    45    44    1
     4    44    43    1
     5    43    37    1
     6    37    38    1
     7    38    39    1
     8    39    40    1
     9    31    40    1
    10    31    32    1
    11    32    33    1
    12    33    34    1
    13    34     1    1
    14     1     2   ar
    15     2     3   ar
    16     3    13    1
    17    13    14    2
    18    14    15    1
    19    15    16    2
    20    16    17    1
    21    17    18    2
    22    18    22    1
    23    22    23    1
    24    23    24   ar
    25    24    25   ar
    26    25    26   ar
    27    26    27   ar
    28    27    28   ar
    29    28    29    1
    30    29    30    1
    31    18    19    1
    32    19    20    2
    33    20    21    1
    34     3     4   ar
    35     4     5   ar
    36     5     6    1
    37     5     7   ar
    38     7     8   ar
    39     8     9   ar
    40     9    10   ar
    41    34    35    1
    42    35    36    1
    43    40    41    1
    44    41    42    1
    45    42    37    1
    46    36    31    1
    47    10     1   ar
    48    21    13    1
    49    10     4   ar
    50    20    16    1
    51    28    23   ar
    52     6    11    1
    53     6    12    1
