@<TRIPOS>MOLECULE
*****
 56 63 0 0 0
SMALL
GASTEIGER

@<TRIPOS>ATOM
      1 C          64.7837   96.1071    1.7244 C.ar    1  UNL1        0.1090
      2 C          65.9588   96.2941    0.8111 C.ar    1  UNL1        0.0405
      3 C          65.7406   96.6683   -0.6250 C.ar    1  UNL1        0.1596
      4 F          66.9158   96.8553   -1.5383 F       1  UNL1       -0.2025
      5 C          64.3472   96.8557   -1.1478 C.ar    1  UNL1        0.1316
      6 N          63.1720   96.6687   -0.2345 N.ar    1  UNL1       -0.2073
      7 C          63.3903   96.2945    1.2016 C.ar    1  UNL1        0.2341
      8 N          65.5002   96.7583    4.1353 N.am    1  UNL1       -0.3024
      9 C          65.0020   95.7329    3.1604 C.2     1  UNL1        0.2504
     10 O          64.7221   94.3333    3.6216 O.2     1  UNL1       -0.2700
     11 H          65.6839   97.6769    3.8327 H       1  UNL1        0.1497
     12 C          66.1550   95.6355    8.4435 C.3     1  UNL1        0.0720
     13 C          64.9774   96.4816    8.0597 C.3     1  UNL1        0.0213
     14 C          64.7591   96.8559    6.6236 C.3     1  UNL1        0.0213
     15 C          65.7185   96.3840    5.5714 C.3     1  UNL1        0.0720
     16 C          66.8960   95.5380    5.9553 C.3     1  UNL1        0.0213
     17 C          67.1143   95.1637    7.3914 C.3     1  UNL1        0.0213
     18 C          65.7223   94.0323   10.4417 C.2     1  UNL1        0.2651
     19 O          64.8531   93.1777    9.5676 O.2     1  UNL1       -0.2684
     20 N          66.3733   95.2612    9.8796 N.am    1  UNL1       -0.3012
     21 H          66.9438   95.8222   10.4532 H       1  UNL1        0.1497
     22 C          64.3639   90.6301   15.0961 C.3     1  UNL1        0.0504
     23 C          65.4147   91.6940   15.2137 C.ar    1  UNL1        0.0432
     24 C          66.1291   91.9019   16.5161 C.ar    1  UNL1        0.0132
     25 C          67.1800   92.9658   16.6337 C.ar    1  UNL1        0.0043
     26 C          67.5163   93.8219   15.4488 C.ar    1  UNL1        0.0374
     27 C          66.8019   93.6141   14.1464 C.ar    1  UNL1        0.1477
     28 N          66.9190   94.2988   12.8169 N.ar    1  UNL1       -0.2218
     29 C          65.9406   93.6580   11.8777 C.ar    1  UNL1        0.1535
     30 C          65.2188   92.5773   12.6267 C.ar    1  UNL1        0.1050
     31 N          65.7511   92.5501   14.0288 N.ar    1  UNL1       -0.2925
     32 O          62.2151   96.1075    2.1149 O.3     1  UNL1       -0.4360
     33 C          61.2409   94.9947    1.8652 C.ar    1  UNL1        0.1472
     34 C          60.6595   94.7999    0.4963 C.ar    1  UNL1        0.0376
     35 C          59.6851   93.6870    0.2467 C.ar    1  UNL1        0.0031
     36 C          59.2923   92.7690    1.3660 C.ar    1  UNL1        0.0002
     37 C          59.8737   92.9638    2.7349 C.ar    1  UNL1        0.0030
     38 C          60.8480   94.0766    2.9846 C.ar    1  UNL1        0.0376
     39 C          59.4808   92.0457    3.8542 C.ar    1  UNL1        0.0001
     40 C          60.5136   91.1776    4.5099 C.ar    1  UNL1       -0.0003
     41 C          60.1206   90.2596    5.6291 C.ar    1  UNL1       -0.0029
     42 C          58.6950   90.2096    6.0927 C.ar    1  UNL1       -0.0061
     43 C          57.6622   91.0776    5.4371 C.ar    1  UNL1       -0.0029
     44 C          58.0551   91.9957    4.3179 C.ar    1  UNL1       -0.0003
     45 C          58.3021   89.2915    7.2121 C.3     1  UNL1        0.0991
     46 N          59.3036   88.3303    7.7803 N.3     1  UNL1       -0.2689
     47 C          60.2183   88.7667    8.8861 C.3     1  UNL1        0.0738
     48 C          61.2198   87.8054    9.4544 C.3     1  UNL1        0.0333
     49 C          61.3067   86.4077    8.9167 C.3     1  UNL1        0.0603
     50 C          60.3920   85.9713    7.8109 C.3     1  UNL1        0.0333
     51 C          59.3904   86.9327    7.2427 C.3     1  UNL1        0.0738
     52 N          62.3082   85.4465    9.4850 N.3     1  UNL1       -0.2739
     53 C          63.1782   84.5118    8.6978 C.3     1  UNL1        0.0721
     54 C          64.0233   83.7388    9.6665 C.3     1  UNL1        0.0188
     55 C          63.6756   84.1957   11.0523 C.3     1  UNL1        0.0188
     56 C          62.6157   85.2511   10.9401 C.3     1  UNL1        0.0721
@<TRIPOS>BOND
     1    22    23    1
     2    23    24   ar
     3    24    25   ar
     4    25    26   ar
     5    26    27   ar
     6    27    28   ar
     7    28    29   ar
     8    29    18    1
     9    18    19    2
    10    18    20   am
    11    12    20    1
    12    12    13    1
    13    13    14    1
    14    14    15    1
    15    15     8    1
    16     8     9   am
    17     9    10    2
    18     9     1    1
    19     1     2   ar
    20     2     3   ar
    21     3     4    1
    22     3     5   ar
    23     5     6   ar
    24     6     7   ar
    25     7    32    1
    26    32    33    1
    27    33    34   ar
    28    34    35   ar
    29    35    36   ar
    30    36    37   ar
    31    37    39    1
    32    39    40   ar
    33    40    41   ar
    34    41    42   ar
    35    42    45    1
    36    45    46    1
    37    46    47    1
    38    47    48    1
    39    48    49    1
    40    49    52    1
    41    52    53    1
    42    53    54    1
    43    54    55    1
    44    55    56    1
    45    49    50    1
    46    50    51    1
    47    42    43   ar
    48    43    44   ar
    49    37    38   ar
    50    15    16    1
    51    16    17    1
    52    29    30   ar
    53    30    31   ar
    54    31    23   ar
    55    31    27   ar
    56    17    12    1
    57     7     1   ar
    58    38    33   ar
    59    44    39   ar
    60    51    46    1
    61    56    52    1
    62    20    21    1
    63     8    11    1
@<TRIPOS>MOLECULE
*****
 56 63 0 0 0
SMALL
GASTEIGER

@<TRIPOS>ATOM
      1 C          62.7181   82.9942   12.8590 C.ar    1  UNL1        0.1090
      2 C          61.8941   81.7468   12.7369 C.ar    1  UNL1        0.0405
      3 C          61.9849   80.6819   13.7894 C.ar    1  UNL1        0.1596
      4 F          61.1609   79.4344   13.6673 F       1  UNL1       -0.2025
      5 C          62.8997   80.8644   14.9640 C.ar    1  UNL1        0.1316
      6 N          63.7238   82.1119   15.0862 N.ar    1  UNL1       -0.2073
      7 C          63.6330   83.1768   14.0336 C.ar    1  UNL1        0.2341
      8 N          61.6644   85.1973   11.9723 N.am    1  UNL1       -0.3024
      9 C          62.6273   84.0591   11.8065 C.2     1  UNL1        0.2504
     10 O          63.4992   83.9857   10.5882 O.2     1  UNL1       -0.2700
     11 H          61.0921   85.2454   12.7719 H       1  UNL1        0.1497
     12 C          61.3919   88.3919    8.8147 C.3     1  UNL1        0.0720
     13 C          60.8128   87.0322    8.5579 C.3     1  UNL1        0.0213
     14 C          60.9036   85.9673    9.6104 C.3     1  UNL1        0.0213
     15 C          61.5736   86.2622   10.9197 C.3     1  UNL1        0.0720
     16 C          62.1527   87.6218   11.1765 C.3     1  UNL1        0.0213
     17 C          62.0618   88.6867   10.1240 C.3     1  UNL1        0.0213
     18 C          60.3275   89.3115    6.6304 C.2     1  UNL1        0.2651
     19 O          59.4448   88.1014    6.5511 O.2     1  UNL1       -0.2684
     20 N          61.3011   89.4568    7.7622 N.am    1  UNL1       -0.3012
     21 H          61.8805   90.2510    7.8142 H       1  UNL1        0.1497
     22 C          62.9530   92.6445    2.4972 C.3     1  UNL1        0.0504
     23 C          61.4856   92.7909    2.7720 C.ar    1  UNL1        0.0432
     24 C          60.6733   93.7862    1.9978 C.ar    1  UNL1        0.0132
     25 C          59.2060   93.9326    2.2725 C.ar    1  UNL1        0.0043
     26 C          58.5509   93.0836    3.3214 C.ar    1  UNL1        0.0374
     27 C          59.3633   92.0883    4.0955 C.ar    1  UNL1        0.1477
     28 N          58.9962   91.1207    5.1814 N.ar    1  UNL1       -0.2218
     29 C          60.2367   90.3764    5.5779 C.ar    1  UNL1        0.1535
     30 C          61.3704   90.8839    4.7369 C.ar    1  UNL1        0.1050
     31 N          60.8306   91.9419    3.8208 N.ar    1  UNL1       -0.2925
     32 O          64.4569   84.4242   14.1557 O.3     1  UNL1       -0.4360
     33 C          63.9722   85.5633   15.0027 C.ar    1  UNL1        0.1472
     34 C          62.9620   85.3171   16.0839 C.ar    1  UNL1        0.0376
     35 C          62.4773   86.4563   16.9309 C.ar    1  UNL1        0.0031
     36 C          63.0027   87.8416   16.6966 C.ar    1  UNL1        0.0002
     37 C          64.0128   88.0878   15.6154 C.ar    1  UNL1        0.0030
     38 C          64.4976   86.9487   14.7685 C.ar    1  UNL1        0.0376
     39 C          64.5382   89.4732   15.3812 C.ar    1  UNL1        0.0001
     40 C          64.0218   90.6194   16.1994 C.ar    1  UNL1       -0.0003
     41 C          64.5472   92.0047   15.9651 C.ar    1  UNL1       -0.0029
     42 C          65.5890   92.2437   14.9128 C.ar    1  UNL1       -0.0061
     43 C          66.1054   91.0975   14.0946 C.ar    1  UNL1       -0.0029
     44 C          65.5800   89.7122   14.3289 C.ar    1  UNL1       -0.0003
     45 C          66.1144   93.6291   14.6786 C.3     1  UNL1        0.0991
     46 N          66.1201   94.2049   13.2935 N.3     1  UNL1       -0.2689
     47 C          65.7730   93.3381   12.1195 C.3     1  UNL1        0.0738
     48 C          65.7787   93.9138   10.7345 C.3     1  UNL1        0.0333
     49 C          66.1316   95.3564   10.5233 C.3     1  UNL1        0.0603
     50 C          66.4788   96.2232   11.6973 C.3     1  UNL1        0.0333
     51 C          66.4730   95.6474   13.0824 C.3     1  UNL1        0.0738
     52 N          66.1373   95.9322    9.1383 N.3     1  UNL1       -0.2739
     53 C          67.3525   96.2100    8.3040 C.3     1  UNL1        0.0721
     54 C          66.8951   96.7807    6.9944 C.3     1  UNL1        0.0188
     55 C          65.3972   96.8557    7.0193 C.3     1  UNL1        0.0188
     56 C          64.9289   96.3312    8.3443 C.3     1  UNL1        0.0721
@<TRIPOS>BOND
     1    22    23    1
     2    23    24   ar
     3    24    25   ar
     4    25    26   ar
     5    26    27   ar
     6    27    28   ar
     7    28    29   ar
     8    29    18    1
     9    18    19    2
    10    18    20   am
    11    12    20    1
    12    12    13    1
    13    13    14    1
    14    14    15    1
    15    15     8    1
    16     8     9   am
    17     9    10    2
    18     9     1    1
    19     1     2   ar
    20     2     3   ar
    21     3     4    1
    22     3     5   ar
    23     5     6   ar
    24     6     7   ar
    25     7    32    1
    26    32    33    1
    27    33    34   ar
    28    34    35   ar
    29    35    36   ar
    30    36    37   ar
    31    37    39    1
    32    39    40   ar
    33    40    41   ar
    34    41    42   ar
    35    42    45    1
    36    45    46    1
    37    46    47    1
    38    47    48    1
    39    48    49    1
    40    49    52    1
    41    52    53    1
    42    53    54    1
    43    54    55    1
    44    55    56    1
    45    49    50    1
    46    50    51    1
    47    42    43   ar
    48    43    44   ar
    49    37    38   ar
    50    15    16    1
    51    16    17    1
    52    29    30   ar
    53    30    31   ar
    54    31    23   ar
    55    31    27   ar
    56    17    12    1
    57     7     1   ar
    58    38    33   ar
    59    44    39   ar
    60    51    46    1
    61    56    52    1
    62    20    21    1
    63     8    11    1
