@<TRIPOS>MOLECULE
*****
 33 36 0 0 0
SMALL
GASTEIGER

@<TRIPOS>ATOM
      1 N          62.5698   83.9435   11.9288 N.pl3   1  UNL1       -0.3063
      2 C          61.8826   84.9907   12.7541 C.3     1  UNL1        0.0925
      3 C          61.6479   86.3589   12.1859 C.3     1  UNL1        0.0415
      4 C          62.1004   86.6799   10.7922 C.3     1  UNL1        0.0807
      5 C          62.7876   85.6328    9.9669 C.3     1  UNL1        0.0415
      6 C          63.0223   84.2646   10.5352 C.3     1  UNL1        0.0925
      7 C          63.3966   82.4236   13.8670 C.ar    1  UNL1        0.1354
      8 C          63.6313   81.0554   14.4352 C.ar    1  UNL1        0.0212
      9 C          63.2739   79.8390   13.6337 C.ar    1  UNL1        0.0015
     10 C          62.6819   79.9907   12.2639 C.ar    1  UNL1        0.0013
     11 C          62.4472   81.3588   11.6956 C.ar    1  UNL1        0.0159
     12 C          62.8045   82.5753   12.4972 C.ar    1  UNL1        0.0667
     13 S          63.7540   83.6401   14.6685 S.O2    1  UNL1        0.0646
     14 O          62.5468   83.4254   15.5326 O.2     1  UNL1       -0.1527
     15 O          64.9611   83.8548   13.8044 O.2     1  UNL1       -0.1527
     16 C          63.2872   85.2365   16.6644 C.3     1  UNL1        0.1150
     17 N          64.1113   84.8566   15.4700 N.3     1  UNL1       -0.1525
     18 C          65.2928   85.6931   15.0772 C.3     1  UNL1        0.1150
     19 N          61.8657   88.0481   10.2240 N.pl3   1  UNL1       -0.2872
     20 C          62.6585   89.2166   10.7300 C.ar    1  UNL1        0.0516
     21 C          63.1674   89.2231   12.1410 C.ar    1  UNL1        0.0155
     22 C          63.9603   90.3915   12.6470 C.ar    1  UNL1        0.0116
     23 C          64.2443   91.5535   11.7420 C.ar    1  UNL1        0.0685
     24 C          63.7355   91.5470   10.3309 C.ar    1  UNL1        0.0116
     25 C          62.9426   90.3785    9.8249 C.ar    1  UNL1        0.0155
     26 C          65.0372   92.7219   12.2480 C.1     1  UNL1        0.1004
     27 N          65.8301   93.8904   12.7540 N.1     1  UNL1       -0.1908
     28 C          60.8380   88.2478    9.1497 C.ar    1  UNL1        0.0710
     29 C          60.1821   87.0605    8.5092 C.ar    1  UNL1        0.0180
     30 C          59.1545   87.2602    7.4349 C.ar    1  UNL1        0.0220
     31 C          58.7828   88.6472    7.0011 C.ar    1  UNL1        0.0990
     32 N          59.4387   89.8344    7.6415 N.ar    1  UNL1       -0.2410
     33 C          60.4663   89.6348    8.7159 C.ar    1  UNL1        0.1136
@<TRIPOS>BOND
     1    16    17    1
     2    17    18    1
     3    17    13    1
     4    13    14    2
     5    13    15    2
     6    13     7    1
     7     7     8   ar
     8     8     9   ar
     9     9    10   ar
    10    10    11   ar
    11    11    12   ar
    12    12     1    1
    13     1     2    1
    14     2     3    1
    15     3     4    1
    16     4    19    1
    17    19    20    1
    18    20    21   ar
    19    21    22   ar
    20    22    23   ar
    21    23    26    1
    22    26    27    3
    23    23    24   ar
    24    24    25   ar
    25    19    28    1
    26    28    29   ar
    27    29    30   ar
    28    30    31   ar
    29    31    32   ar
    30    32    33   ar
    31     4     5    1
    32     5     6    1
    33    12     7   ar
    34     6     1    1
    35    25    20   ar
    36    33    28   ar
@<TRIPOS>MOLECULE
*****
 33 36 0 0 0
SMALL
GASTEIGER

@<TRIPOS>ATOM
      1 N          64.9458   90.8139   13.6804 N.pl3   1  UNL1       -0.3063
      2 C          64.3020   91.2560   12.3997 C.3     1  UNL1        0.0925
      3 C          63.4481   90.3001   11.6206 C.3     1  UNL1        0.0415
      4 C          63.2380   88.9020   12.1220 C.3     1  UNL1        0.0807
      5 C          63.8818   88.4599   13.4027 C.3     1  UNL1        0.0415
      6 C          64.7357   89.4159   14.1819 C.3     1  UNL1        0.0925
      7 C          66.7406   92.6913   13.7417 C.ar    1  UNL1        0.1354
      8 C          67.5944   93.6472   14.5209 C.ar    1  UNL1        0.0212
      9 C          67.5074   93.6816   16.0179 C.ar    1  UNL1        0.0015
     10 C          66.5664   92.7601   16.7358 C.ar    1  UNL1        0.0013
     11 C          65.7126   91.8042   15.9567 C.ar    1  UNL1        0.0159
     12 C          65.7997   91.7698   14.4596 C.ar    1  UNL1        0.0667
     13 S          66.8277   92.6570   12.2446 S.O2    1  UNL1        0.0646
     14 O          67.9157   91.6281   12.3315 O.2     1  UNL1       -0.1527
     15 O          65.7396   93.6859   12.1577 O.2     1  UNL1       -0.1527
     16 C          68.0166   91.8563   10.0778 C.3     1  UNL1        0.1150
     17 N          66.9148   92.6226   10.7475 N.3     1  UNL1       -0.1525
     18 C          65.9000   93.3545    9.9202 C.3     1  UNL1        0.1150
     19 N          62.3841   87.9462   11.3428 N.pl3   1  UNL1       -0.2872
     20 C          62.4985   86.4702   11.5844 C.ar    1  UNL1        0.0516
     21 C          62.6156   85.9462   12.9850 C.ar    1  UNL1        0.0155
     22 C          62.7299   84.4702   13.2266 C.ar    1  UNL1        0.0116
     23 C          62.7272   83.5182   12.0675 C.ar    1  UNL1        0.0685
     24 C          62.6102   84.0421   10.6669 C.ar    1  UNL1        0.0116
     25 C          62.4958   85.5181   10.4253 C.ar    1  UNL1        0.0155
     26 C          62.8416   82.0422   12.3091 C.1     1  UNL1        0.1004
     27 N          62.9560   80.5662   12.5506 N.1     1  UNL1       -0.1908
     28 C          61.4159   88.4663   10.3221 C.ar    1  UNL1        0.0710
     29 C          61.1669   87.6921    9.0616 C.ar    1  UNL1        0.0180
     30 C          60.1987   88.2122    8.0409 C.ar    1  UNL1        0.0220
     31 C          59.4794   89.5065    8.2806 C.ar    1  UNL1        0.0990
     32 N          59.7283   90.2807    9.5410 N.ar    1  UNL1       -0.2410
     33 C          60.6966   89.7606   10.5618 C.ar    1  UNL1        0.1136
@<TRIPOS>BOND
     1    16    17    1
     2    17    18    1
     3    17    13    1
     4    13    14    2
     5    13    15    2
     6    13     7    1
     7     7     8   ar
     8     8     9   ar
     9     9    10   ar
    10    10    11   ar
    11    11    12   ar
    12    12     1    1
    13     1     2    1
    14     2     3    1
    15     3     4    1
    16     4    19    1
    17    19    20    1
    18    20    21   ar
    19    21    22   ar
    20    22    23   ar
    21    23    26    1
    22    26    27    3
    23    23    24   ar
    24    24    25   ar
    25    19    28    1
    26    28    29   ar
    27    29    30   ar
    28    30    31   ar
    29    31    32   ar
    30    32    33   ar
    31     4     5    1
    32     5     6    1
    33    12     7   ar
    34     6     1    1
    35    25    20   ar
    36    33    28   ar
@<TRIPOS>MOLECULE
*****
 33 36 0 0 0
SMALL
GASTEIGER

@<TRIPOS>ATOM
      1 N          64.1924   90.9120   11.8834 N.pl3   1  UNL1       -0.3063
      2 C          63.6351   91.0515   10.4978 C.3     1  UNL1        0.0925
      3 C          62.8534   89.9264    9.8870 C.3     1  UNL1        0.0415
      4 C          62.6290   88.6618   10.6618 C.3     1  UNL1        0.0807
      5 C          63.1863   88.5222   12.0474 C.3     1  UNL1        0.0415
      6 C          63.9680   89.6474   12.6582 C.3     1  UNL1        0.0925
      7 C          65.2254   92.0598   13.9728 C.ar    1  UNL1        0.1354
      8 C          66.0071   93.1849   14.5835 C.ar    1  UNL1        0.0212
      9 C          66.5375   94.2874   13.7157 C.ar    1  UNL1        0.0015
     10 C          66.2861   94.2648   12.2371 C.ar    1  UNL1        0.0013
     11 C          65.5045   93.1397   11.6264 C.ar    1  UNL1        0.0159
     12 C          64.9741   92.0372   12.4942 C.ar    1  UNL1        0.0667
     13 S          64.6951   90.9573   14.8407 S.O2    1  UNL1        0.0646
     14 O          63.3626   91.6437   14.8984 O.2     1  UNL1       -0.1527
     15 O          66.0275   90.2708   14.7829 O.2     1  UNL1       -0.1527
     16 C          63.3431   90.1831   16.9198 C.3     1  UNL1        0.1150
     17 N          64.1647   89.8548   15.7086 N.3     1  UNL1       -0.1525
     18 C          64.4560   88.4240   15.3652 C.3     1  UNL1        0.1150
     19 N          61.8473   87.5367   10.0510 N.pl3   1  UNL1       -0.2872
     20 C          62.1595   86.1176   10.4235 C.ar    1  UNL1        0.0516
     21 C          62.8375   85.2148    9.4360 C.ar    1  UNL1        0.0155
     22 C          63.1497   83.7957    9.8085 C.ar    1  UNL1        0.0116
     23 C          62.7840   83.2795   11.1685 C.ar    1  UNL1        0.0685
     24 C          62.1060   84.1823   12.1560 C.ar    1  UNL1        0.0116
     25 C          61.7938   85.6014   11.7835 C.ar    1  UNL1        0.0155
     26 C          63.0962   81.8604   11.5410 C.1     1  UNL1        0.1004
     27 N          63.4084   80.4413   11.9135 N.1     1  UNL1       -0.1908
     28 C          60.7535   87.8307    9.0677 C.ar    1  UNL1        0.0710
     29 C          59.9656   86.7061    8.4638 C.ar    1  UNL1        0.0180
     30 C          58.8717   87.0001    7.4805 C.ar    1  UNL1        0.0220
     31 C          58.5656   88.4186    7.1010 C.ar    1  UNL1        0.0990
     32 N          59.3535   89.5432    7.7048 N.ar    1  UNL1       -0.2410
     33 C          60.4474   89.2492    8.6882 C.ar    1  UNL1        0.1136
@<TRIPOS>BOND
     1    16    17    1
     2    17    18    1
     3    17    13    1
     4    13    14    2
     5    13    15    2
     6    13     7    1
     7     7     8   ar
     8     8     9   ar
     9     9    10   ar
    10    10    11   ar
    11    11    12   ar
    12    12     1    1
    13     1     2    1
    14     2     3    1
    15     3     4    1
    16     4    19    1
    17    19    20    1
    18    20    21   ar
    19    21    22   ar
    20    22    23   ar
    21    23    26    1
    22    26    27    3
    23    23    24   ar
    24    24    25   ar
    25    19    28    1
    26    28    29   ar
    27    29    30   ar
    28    30    31   ar
    29    31    32   ar
    30    32    33   ar
    31     4     5    1
    32     5     6    1
    33    12     7   ar
    34     6     1    1
    35    25    20   ar
    36    33    28   ar
@<TRIPOS>MOLECULE
*****
 33 36 0 0 0
SMALL
GASTEIGER

@<TRIPOS>ATOM
      1 N          60.9959   86.9318    9.5252 N.pl3   1  UNL1       -0.3063
      2 C          61.9332   85.8775    9.0154 C.3     1  UNL1        0.0925
      3 C          62.5164   84.8710    9.9623 C.3     1  UNL1        0.0415
      4 C          62.1623   84.9187   11.4192 C.3     1  UNL1        0.0807
      5 C          61.2249   85.9730   11.9290 C.3     1  UNL1        0.0415
      6 C          60.6418   86.9795   10.9819 C.3     1  UNL1        0.0925
      7 C          60.6359   89.4034    8.8099 C.ar    1  UNL1        0.1354
      8 C          60.0527   90.4099    7.8629 C.ar    1  UNL1        0.0212
      9 C          59.2464   89.9513    6.6841 C.ar    1  UNL1        0.0015
     10 C          59.0233   88.4862    6.4523 C.ar    1  UNL1        0.0013
     11 C          59.6065   87.4798    7.3993 C.ar    1  UNL1        0.0159
     12 C          60.4128   87.9384    8.5781 C.ar    1  UNL1        0.0667
     13 S          61.4421   89.8620    9.9888 S.O2    1  UNL1        0.0646
     14 O          60.2060   90.4443   10.6077 O.2     1  UNL1       -0.1527
     15 O          62.6782   89.2797    9.3699 O.2     1  UNL1       -0.1527
     16 C          61.8557   89.9019   12.5534 C.3     1  UNL1        0.1150
     17 N          62.2484   90.3206   11.1676 N.3     1  UNL1       -0.1525
     18 C          63.4474   91.1978   10.9606 C.3     1  UNL1        0.1150
     19 N          62.7454   83.9122   12.3661 N.pl3   1  UNL1       -0.2872
     20 C          62.7928   82.4624   11.9840 C.ar    1  UNL1        0.0516
     21 C          63.2444   82.0632   10.6105 C.ar    1  UNL1        0.0155
     22 C          63.2917   80.6134   10.2284 C.ar    1  UNL1        0.0116
     23 C          62.8875   79.5629   11.2198 C.ar    1  UNL1        0.0685
     24 C          62.4359   79.9622   12.5933 C.ar    1  UNL1        0.0116
     25 C          62.3886   81.4119   12.9754 C.ar    1  UNL1        0.0155
     26 C          62.9349   78.1132   10.8377 C.1     1  UNL1        0.1004
     27 N          62.9823   76.6634   10.4556 N.1     1  UNL1       -0.1908
     28 C          63.2812   84.3554   13.6952 C.ar    1  UNL1        0.0710
     29 C          64.7126   84.7860   13.8210 C.ar    1  UNL1        0.0180
     30 C          65.2484   85.2292   15.1501 C.ar    1  UNL1        0.0220
     31 C          64.3529   85.2418   16.3533 C.ar    1  UNL1        0.0990
     32 N          62.9216   84.8112   16.2276 N.ar    1  UNL1       -0.2410
     33 C          62.3857   84.3679   14.8985 C.ar    1  UNL1        0.1136
@<TRIPOS>BOND
     1    16    17    1
     2    17    18    1
     3    17    13    1
     4    13    14    2
     5    13    15    2
     6    13     7    1
     7     7     8   ar
     8     8     9   ar
     9     9    10   ar
    10    10    11   ar
    11    11    12   ar
    12    12     1    1
    13     1     2    1
    14     2     3    1
    15     3     4    1
    16     4    19    1
    17    19    20    1
    18    20    21   ar
    19    21    22   ar
    20    22    23   ar
    21    23    26    1
    22    26    27    3
    23    23    24   ar
    24    24    25   ar
    25    19    28    1
    26    28    29   ar
    27    29    30   ar
    28    30    31   ar
    29    31    32   ar
    30    32    33   ar
    31     4     5    1
    32     5     6    1
    33    12     7   ar
    34     6     1    1
    35    25    20   ar
    36    33    28   ar
@<TRIPOS>MOLECULE
*****
 33 36 0 0 0
SMALL
GASTEIGER

@<TRIPOS>ATOM
      1 N          61.6206   88.8742   10.9179 N.pl3   1  UNL1       -0.3063
      2 C          62.8282   88.0245   11.1821 C.3     1  UNL1        0.0925
      3 C          63.5558   88.1409   12.4886 C.3     1  UNL1        0.0415
      4 C          63.0759   89.1070   13.5310 C.3     1  UNL1        0.0807
      5 C          61.8683   89.9566   13.2667 C.3     1  UNL1        0.0415
      6 C          61.1407   89.8402   11.9602 C.3     1  UNL1        0.0925
      7 C          60.8974   87.4574    8.8637 C.ar    1  UNL1        0.1354
      8 C          60.1698   87.3411    7.5572 C.ar    1  UNL1        0.0212
      9 C          59.4378   88.5251    6.9983 C.ar    1  UNL1        0.0015
     10 C          59.4333   89.8254    7.7460 C.ar    1  UNL1        0.0013
     11 C          60.1610   89.9418    9.0525 C.ar    1  UNL1        0.0159
     12 C          60.8930   88.7578    9.6113 C.ar    1  UNL1        0.0667
     13 S          61.6295   86.2735    9.4225 S.O2    1  UNL1        0.0646
     14 O          60.5911   86.1384   10.4965 O.2     1  UNL1       -0.1527
     15 O          62.6678   86.4085    8.3484 O.2     1  UNL1       -0.1527
     16 C          62.1094   84.6498   11.3931 C.3     1  UNL1        0.1150
     17 N          62.3615   85.0895    9.9813 N.3     1  UNL1       -0.1525
     18 C          63.3456   84.3452    9.1284 C.3     1  UNL1        0.1150
     19 N          63.8035   89.2233   14.8375 N.pl3   1  UNL1       -0.2872
     20 C          64.7826   90.3389   15.0539 C.ar    1  UNL1        0.0516
     21 C          66.0414   90.4004   14.2405 C.ar    1  UNL1        0.0155
     22 C          67.0205   91.5160   14.4570 C.ar    1  UNL1        0.0116
     23 C          66.7408   92.5701   15.4868 C.ar    1  UNL1        0.0685
     24 C          65.4820   92.5086   16.3001 C.ar    1  UNL1        0.0116
     25 C          64.5029   91.3931   16.0837 C.ar    1  UNL1        0.0155
     26 C          67.7199   93.6857   15.7032 C.1     1  UNL1        0.1004
     27 N          68.6990   94.8013   15.9196 N.1     1  UNL1       -0.1908
     28 C          63.5521   88.2241   15.9275 C.ar    1  UNL1        0.0710
     29 C          62.9536   88.6688   17.2292 C.ar    1  UNL1        0.0180
     30 C          62.7022   87.6696   18.3192 C.ar    1  UNL1        0.0220
     31 C          63.0491   86.2256   18.1077 C.ar    1  UNL1        0.0990
     32 N          63.6475   85.7809   16.8061 N.ar    1  UNL1       -0.2410
     33 C          63.8990   86.7802   15.7160 C.ar    1  UNL1        0.1136
@<TRIPOS>BOND
     1    16    17    1
     2    17    18    1
     3    17    13    1
     4    13    14    2
     5    13    15    2
     6    13     7    1
     7     7     8   ar
     8     8     9   ar
     9     9    10   ar
    10    10    11   ar
    11    11    12   ar
    12    12     1    1
    13     1     2    1
    14     2     3    1
    15     3     4    1
    16     4    19    1
    17    19    20    1
    18    20    21   ar
    19    21    22   ar
    20    22    23   ar
    21    23    26    1
    22    26    27    3
    23    23    24   ar
    24    24    25   ar
    25    19    28    1
    26    28    29   ar
    27    29    30   ar
    28    30    31   ar
    29    31    32   ar
    30    32    33   ar
    31     4     5    1
    32     5     6    1
    33    12     7   ar
    34     6     1    1
    35    25    20   ar
    36    33    28   ar
@<TRIPOS>MOLECULE
*****
 33 36 0 0 0
SMALL
GASTEIGER

@<TRIPOS>ATOM
      1 N          64.4587   92.4097   11.1952 N.pl3   1  UNL1       -0.3063
      2 C          64.3627   91.7198    9.8668 C.3     1  UNL1        0.0925
      3 C          63.6784   90.3892    9.7605 C.3     1  UNL1        0.0415
      4 C          63.0901   89.7486   10.9826 C.3     1  UNL1        0.0807
      5 C          63.1861   90.4385   12.3110 C.3     1  UNL1        0.0415
      6 C          63.8705   91.7691   12.4173 C.3     1  UNL1        0.0925
      7 C          66.1644   93.9748   12.3748 C.ar    1  UNL1        0.1354
      8 C          66.8487   95.3054   12.4810 C.ar    1  UNL1        0.0212
      9 C          66.5117   96.4014   11.5140 C.ar    1  UNL1        0.0015
     10 C          65.4904   96.1669   10.4408 C.ar    1  UNL1        0.0013
     11 C          64.8061   94.8364   10.3345 C.ar    1  UNL1        0.0159
     12 C          65.1431   93.7403   11.3015 C.ar    1  UNL1        0.0667
     13 S          66.5014   92.8788   13.3418 S.O2    1  UNL1        0.0646
     14 O          67.3348   92.2076   12.2906 O.2     1  UNL1       -0.1527
     15 O          65.6680   93.5499   14.3930 O.2     1  UNL1       -0.1527
     16 C          68.1719   91.7721   14.9955 C.3     1  UNL1        0.1150
     17 N          66.8384   91.7827   14.3088 N.3     1  UNL1       -0.1525
     18 C          65.8419   90.6972   14.5891 C.3     1  UNL1        0.1150
     19 N          62.4057   88.4181   10.8763 N.pl3   1  UNL1       -0.2872
     20 C          62.7608   87.3139   11.8274 C.ar    1  UNL1        0.0516
     21 C          63.6031   87.6052   13.0339 C.ar    1  UNL1        0.0155
     22 C          63.9581   86.5010   13.9851 C.ar    1  UNL1        0.0116
     23 C          63.4709   85.1056   13.7298 C.ar    1  UNL1        0.0685
     24 C          62.6287   84.8143   12.5233 C.ar    1  UNL1        0.0116
     25 C          62.2736   85.9184   11.5721 C.ar    1  UNL1        0.0155
     26 C          63.8260   84.0014   14.6810 C.1     1  UNL1        0.1004
     27 N          64.1811   82.8972   15.6322 N.1     1  UNL1       -0.1908
     28 C          61.3664   88.1917    9.8187 C.ar    1  UNL1        0.0710
     29 C          61.2445   86.8485    9.1622 C.ar    1  UNL1        0.0180
     30 C          60.2051   86.6221    8.1046 C.ar    1  UNL1        0.0220
     31 C          59.2876   87.7389    7.7036 C.ar    1  UNL1        0.0990
     32 N          59.4094   89.0821    8.3601 N.ar    1  UNL1       -0.2410
     33 C          60.4488   89.3085    9.4177 C.ar    1  UNL1        0.1136
@<TRIPOS>BOND
     1    16    17    1
     2    17    18    1
     3    17    13    1
     4    13    14    2
     5    13    15    2
     6    13     7    1
     7     7     8   ar
     8     8     9   ar
     9     9    10   ar
    10    10    11   ar
    11    11    12   ar
    12    12     1    1
    13     1     2    1
    14     2     3    1
    15     3     4    1
    16     4    19    1
    17    19    20    1
    18    20    21   ar
    19    21    22   ar
    20    22    23   ar
    21    23    26    1
    22    26    27    3
    23    23    24   ar
    24    24    25   ar
    25    19    28    1
    26    28    29   ar
    27    29    30   ar
    28    30    31   ar
    29    31    32   ar
    30    32    33   ar
    31     4     5    1
    32     5     6    1
    33    12     7   ar
    34     6     1    1
    35    25    20   ar
    36    33    28   ar
@<TRIPOS>MOLECULE
*****
 33 36 0 0 0
SMALL
GASTEIGER

@<TRIPOS>ATOM
      1 N          61.7524   89.3480    9.9786 N.pl3   1  UNL1       -0.3063
      2 C          61.9955   89.2399   11.4548 C.3     1  UNL1        0.0925
      3 C          62.9827   90.1516   12.1211 C.3     1  UNL1        0.0415
      4 C          63.7269   91.1716   11.3112 C.3     1  UNL1        0.0807
      5 C          63.4839   91.2797    9.8350 C.3     1  UNL1        0.0415
      6 C          62.4966   90.3678    9.1687 C.3     1  UNL1        0.0925
      7 C          60.7613   86.9711    9.6344 C.ar    1  UNL1        0.1354
      8 C          59.7741   86.0594    8.9681 C.ar    1  UNL1        0.0212
      9 C          58.7907   86.6126    7.9796 C.ar    1  UNL1        0.0015
     10 C          58.7946   88.0775    7.6575 C.ar    1  UNL1        0.0013
     11 C          59.7819   88.9893    8.3238 C.ar    1  UNL1        0.0159
     12 C          60.7652   88.4361    9.3122 C.ar    1  UNL1        0.0667
     13 S          61.7446   86.4179   10.6228 S.O2    1  UNL1        0.0646
     14 O          62.7413   86.2185    9.5197 O.2     1  UNL1       -0.1527
     15 O          60.7479   86.6174   11.7260 O.2     1  UNL1       -0.1527
     16 C          63.0857   84.4084   11.5784 C.3     1  UNL1        0.1150
     17 N          62.7279   85.8647   11.6113 N.3     1  UNL1       -0.1525
     18 C          63.3534   86.7678   12.6326 C.3     1  UNL1        0.1150
     19 N          64.7141   92.0834   11.9776 N.pl3   1  UNL1       -0.2872
     20 C          65.5276   93.0379   11.1546 C.ar    1  UNL1        0.0516
     21 C          66.7502   92.5529   10.4336 C.ar    1  UNL1        0.0155
     22 C          67.5636   93.5074    9.6106 C.ar    1  UNL1        0.0116
     23 C          67.1544   94.9469    9.5088 C.ar    1  UNL1        0.0685
     24 C          65.9318   95.4319   10.2299 C.ar    1  UNL1        0.0116
     25 C          65.1184   94.4774   11.0528 C.ar    1  UNL1        0.0155
     26 C          67.9679   95.9014    8.6859 C.1     1  UNL1        0.1004
     27 N          68.7813   96.8560    7.8630 N.1     1  UNL1       -0.1908
     28 C          64.8879   92.0406   13.4668 C.ar    1  UNL1        0.0710
     29 C          66.0845   92.6855   14.1011 C.ar    1  UNL1        0.0180
     30 C          66.2582   92.6428   15.5904 C.ar    1  UNL1        0.0220
     31 C          65.2354   91.9552   16.4454 C.ar    1  UNL1        0.0990
     32 N          64.0389   91.3103   15.8112 N.ar    1  UNL1       -0.2410
     33 C          63.8650   91.3530   14.3218 C.ar    1  UNL1        0.1136
@<TRIPOS>BOND
     1    16    17    1
     2    17    18    1
     3    17    13    1
     4    13    14    2
     5    13    15    2
     6    13     7    1
     7     7     8   ar
     8     8     9   ar
     9     9    10   ar
    10    10    11   ar
    11    11    12   ar
    12    12     1    1
    13     1     2    1
    14     2     3    1
    15     3     4    1
    16     4    19    1
    17    19    20    1
    18    20    21   ar
    19    21    22   ar
    20    22    23   ar
    21    23    26    1
    22    26    27    3
    23    23    24   ar
    24    24    25   ar
    25    19    28    1
    26    28    29   ar
    27    29    30   ar
    28    30    31   ar
    29    31    32   ar
    30    32    33   ar
    31     4     5    1
    32     5     6    1
    33    12     7   ar
    34     6     1    1
    35    25    20   ar
    36    33    28   ar
