@<TRIPOS>MOLECULE
*****
 32 35 0 0 0
SMALL
GASTEIGER

@<TRIPOS>ATOM
      1 N          63.3425   86.3436   13.2252 N.am    1  UNL1       -0.2510
      2 C          64.1262   87.0469   14.2935 C.2     1  UNL1        0.2687
      3 O          64.7305   86.4080   15.5086 O.2     1  UNL1       -0.2682
      4 C          64.1996   88.5012   13.9332 C.2     1  UNL1        0.1409
      5 N          64.7293   89.8345   14.3708 N.2     1  UNL1       -0.1479
      6 N          64.3183   90.8541   13.3503 N.2     1  UNL1       -0.1565
      7 C          63.5346   90.1509   12.2820 C.2     1  UNL1        0.0650
      8 C          63.4612   88.6967   12.6423 C.3     1  UNL1        0.1071
      9 C          62.9315   87.3633   12.2046 C.3     1  UNL1        0.1164
     10 C          62.3913   81.9470   13.1032 C.ar    1  UNL1        0.0757
     11 C          62.2498   82.7097   14.3871 C.ar    1  UNL1        0.0077
     12 C          62.5668   84.1752   14.4278 C.ar    1  UNL1        0.0151
     13 C          63.0254   84.8782   13.1845 C.ar    1  UNL1        0.0544
     14 C          63.1670   84.1155   11.9007 C.ar    1  UNL1        0.0151
     15 C          62.8499   82.6499   11.8599 C.ar    1  UNL1        0.0077
     16 C          62.0743   80.4815   13.0625 C.2     1  UNL1        0.3412
     17 O          62.7033   79.6067   12.0190 O.2     1  UNL1       -0.2449
     18 O          61.1282   79.8907   14.0654 O.3     1  UNL1       -0.4454
     19 C          58.6153   79.5407   14.6251 C.3     1  UNL1        0.0513
     20 C          59.7384   80.4392   14.1992 C.3     1  UNL1        0.2089
     21 C          62.1312   87.0964   10.9643 C.ar    1  UNL1        0.0308
     22 C          62.7897   86.4823    9.7646 C.ar    1  UNL1        0.0004
     23 C          61.9894   86.2154    8.5243 C.ar    1  UNL1       -0.0001
     24 C          60.5308   86.5626    8.4837 C.ar    1  UNL1        0.0031
     25 C          59.8723   87.1768    9.6834 C.ar    1  UNL1        0.0366
     26 C          60.6725   87.4437   10.9237 C.ar    1  UNL1        0.1363
     27 O          60.0141   88.0579   12.1234 O.3     1  UNL1       -0.4717
     28 C          58.7954   88.9156   11.9531 C.3     1  UNL1        0.2525
     29 C          62.9303   90.7898   11.0668 C.3     1  UNL1        0.0338
     30 C          61.5680   90.6757   11.6842 C.3     1  UNL1        0.0057
     31 C          64.2926   90.9040   10.4494 C.3     1  UNL1        0.0057
     32 C          62.3260   91.4287    9.8516 C.3     1  UNL1        0.0057
@<TRIPOS>BOND
     1    19    20    1
     2    20    18    1
     3    18    16    1
     4    16    17    2
     5    16    10    1
     6    10    11   ar
     7    11    12   ar
     8    12    13   ar
     9    13     1    1
    10     1     2   am
    11     2     3    2
    12     2     4    1
    13     4     5    2
    14     5     6    1
    15     6     7    2
    16     7    29    1
    17    29    30    1
    18    29    31    1
    19    29    32    1
    20     7     8    1
    21     8     9    1
    22     9    21    1
    23    21    22   ar
    24    22    23   ar
    25    23    24   ar
    26    24    25   ar
    27    25    26   ar
    28    26    27    1
    29    27    28    1
    30    13    14   ar
    31    14    15   ar
    32    15    10   ar
    33     9     1    1
    34    26    21   ar
    35     8     4    1
@<TRIPOS>MOLECULE
*****
 32 35 0 0 0
SMALL
GASTEIGER

@<TRIPOS>ATOM
      1 N          63.5499   87.5455   13.4246 N.am    1  UNL1       -0.2510
      2 C          63.8831   86.1303   13.7941 C.2     1  UNL1        0.2687
      3 O          64.5420   85.6828   15.0651 O.2     1  UNL1       -0.2682
      4 C          63.4419   85.2414   12.6693 C.2     1  UNL1        0.1409
      5 N          63.3751   83.8174   12.2026 N.2     1  UNL1       -0.1479
      6 N          62.7279   83.8031   10.8495 N.2     1  UNL1       -0.1565
      7 C          62.3946   85.2181   10.4800 C.2     1  UNL1        0.0650
      8 C          62.8359   86.1071   11.6047 C.3     1  UNL1        0.1071
      9 C          62.9026   87.5311   12.0715 C.3     1  UNL1        0.1164
     10 C          64.3511   91.1934   15.9347 C.ar    1  UNL1        0.0757
     11 C          63.5333   90.0653   16.4905 C.ar    1  UNL1        0.0077
     12 C          63.2662   88.8494   15.6538 C.ar    1  UNL1        0.0151
     13 C          63.8169   88.7614   14.2613 C.ar    1  UNL1        0.0544
     14 C          64.6347   89.8894   13.7056 C.ar    1  UNL1        0.0151
     15 C          64.9018   91.1054   14.5422 C.ar    1  UNL1        0.0077
     16 C          64.6182   92.4093   16.7714 C.2     1  UNL1        0.3412
     17 O          63.4776   93.2664   17.2345 O.2     1  UNL1       -0.2449
     18 O          66.0259   92.7682   17.1451 O.3     1  UNL1       -0.4454
     19 C          68.3490   92.2670   16.0954 C.3     1  UNL1        0.0513
     20 C          67.0473   93.0120   16.0739 C.3     1  UNL1        0.2089
     21 C          62.4088   88.7301   11.3175 C.ar    1  UNL1        0.0308
     22 C          63.3609   89.5377   10.4861 C.ar    1  UNL1        0.0004
     23 C          62.8671   90.7368    9.7322 C.ar    1  UNL1       -0.0001
     24 C          61.4212   91.1282    9.8096 C.ar    1  UNL1        0.0031
     25 C          60.4690   90.3206   10.6410 C.ar    1  UNL1        0.0366
     26 C          60.9628   89.1216   11.3950 C.ar    1  UNL1        0.1363
     27 O          60.0107   88.3140   12.2263 O.3     1  UNL1       -0.4717
     28 C          58.6903   88.8973   12.6339 C.3     1  UNL1        0.2525
     29 C          61.7357   85.6657    9.2089 C.3     1  UNL1        0.0338
     30 C          62.9576   85.2674    8.4353 C.3     1  UNL1        0.0057
     31 C          60.5139   86.0640    9.9825 C.3     1  UNL1        0.0057
     32 C          61.0769   86.1132    7.9378 C.3     1  UNL1        0.0057
@<TRIPOS>BOND
     1    19    20    1
     2    20    18    1
     3    18    16    1
     4    16    17    2
     5    16    10    1
     6    10    11   ar
     7    11    12   ar
     8    12    13   ar
     9    13     1    1
    10     1     2   am
    11     2     3    2
    12     2     4    1
    13     4     5    2
    14     5     6    1
    15     6     7    2
    16     7    29    1
    17    29    30    1
    18    29    31    1
    19    29    32    1
    20     7     8    1
    21     8     9    1
    22     9    21    1
    23    21    22   ar
    24    22    23   ar
    25    23    24   ar
    26    24    25   ar
    27    25    26   ar
    28    26    27    1
    29    27    28    1
    30    13    14   ar
    31    14    15   ar
    32    15    10   ar
    33     9     1    1
    34    26    21   ar
    35     8     4    1
@<TRIPOS>MOLECULE
*****
 32 35 0 0 0
SMALL
GASTEIGER

@<TRIPOS>ATOM
      1 N          60.4080   94.6642   -2.4198 N.am    1  UNL1       -0.2510
      2 C          61.4139   95.5524   -3.0901 C.2     1  UNL1        0.2687
      3 O          62.6716   96.0849   -2.4700 O.2     1  UNL1       -0.2682
      4 C          60.9411   95.8147   -4.4893 C.2     1  UNL1        0.1409
      5 N          61.2707   96.5257   -5.7683 N.2     1  UNL1       -0.1479
      6 N          60.1763   96.2390   -6.7532 N.2     1  UNL1       -0.1565
      7 C          59.1704   95.3508   -6.0830 C.2     1  UNL1        0.0650
      8 C          59.6431   95.0885   -4.6838 C.3     1  UNL1        0.1071
      9 C          59.3136   94.3775   -3.4048 C.3     1  UNL1        0.1164
     10 C          60.6338   93.1291    1.8042 C.ar    1  UNL1        0.0757
     11 C          60.0223   94.4702    1.5252 C.ar    1  UNL1        0.0077
     12 C          59.9471   94.9819    0.1173 C.ar    1  UNL1        0.0151
     13 C          60.4833   94.1525   -1.0118 C.ar    1  UNL1        0.0544
     14 C          61.0947   92.8116   -0.7328 C.ar    1  UNL1        0.0151
     15 C          61.1700   92.2998    0.6752 C.ar    1  UNL1        0.0077
     16 C          60.7091   92.6175    3.2123 C.2     1  UNL1        0.3412
     17 O          61.9441   91.9120    3.6889 O.2     1  UNL1       -0.2449
     18 O          59.5494   92.8113    4.1437 O.3     1  UNL1       -0.4454
     19 C          57.4443   91.5213    4.9528 C.3     1  UNL1        0.0513
     20 C          58.9356   91.6290    4.8333 C.3     1  UNL1        0.2089
     21 C          58.1023   93.5288   -3.1546 C.ar    1  UNL1        0.0308
     22 C          57.9879   92.1776   -3.7958 C.ar    1  UNL1        0.0004
     23 C          56.7767   91.3289   -3.5457 C.ar    1  UNL1       -0.0001
     24 C          55.6798   91.8313   -2.6544 C.ar    1  UNL1        0.0031
     25 C          55.7942   93.1826   -2.0131 C.ar    1  UNL1        0.0366
     26 C          57.0055   94.0313   -2.2633 C.ar    1  UNL1        0.1363
     27 O          57.1199   95.3825   -1.6221 O.3     1  UNL1       -0.4717
     28 C          56.4578   96.5709   -2.2539 C.3     1  UNL1        0.2525
     29 C          57.9126   94.8183   -6.7031 C.3     1  UNL1        0.0338
     30 C          57.1268   95.9189   -6.0542 C.3     1  UNL1        0.0057
     31 C          58.6985   93.7177   -7.3519 C.3     1  UNL1        0.0057
     32 C          56.6549   94.2858   -7.3231 C.3     1  UNL1        0.0057
@<TRIPOS>BOND
     1    19    20    1
     2    20    18    1
     3    18    16    1
     4    16    17    2
     5    16    10    1
     6    10    11   ar
     7    11    12   ar
     8    12    13   ar
     9    13     1    1
    10     1     2   am
    11     2     3    2
    12     2     4    1
    13     4     5    2
    14     5     6    1
    15     6     7    2
    16     7    29    1
    17    29    30    1
    18    29    31    1
    19    29    32    1
    20     7     8    1
    21     8     9    1
    22     9    21    1
    23    21    22   ar
    24    22    23   ar
    25    23    24   ar
    26    24    25   ar
    27    25    26   ar
    28    26    27    1
    29    27    28    1
    30    13    14   ar
    31    14    15   ar
    32    15    10   ar
    33     9     1    1
    34    26    21   ar
    35     8     4    1
@<TRIPOS>MOLECULE
*****
 32 35 0 0 0
SMALL
GASTEIGER

@<TRIPOS>ATOM
      1 N          60.1192   94.0049   -1.6060 N.am    1  UNL1       -0.2510
      2 C          59.3070   93.1916   -0.6421 C.2     1  UNL1        0.2687
      3 O          59.6980   92.8404    0.7628 O.2     1  UNL1       -0.2682
      4 C          58.0355   92.7913   -1.3297 C.2     1  UNL1        0.1409
      5 N          56.7477   92.0413   -1.1589 N.2     1  UNL1       -0.1479
      6 N          55.9780   92.1437   -2.4423 N.2     1  UNL1       -0.1565
      7 C          56.7901   92.9569   -3.4063 C.2     1  UNL1        0.0650
      8 C          58.0617   93.3572   -2.7187 C.3     1  UNL1        0.1071
      9 C          59.3494   94.1072   -2.8895 C.3     1  UNL1        0.1164
     10 C          64.1557   95.8190   -0.7908 C.ar    1  UNL1        0.0757
     11 C          62.9938   96.7010   -1.1403 C.ar    1  UNL1        0.0077
     12 C          61.6483   96.0963   -1.4121 C.ar    1  UNL1        0.0151
     13 C          61.4646   94.6096   -1.3343 C.ar    1  UNL1        0.0544
     14 C          62.6265   93.7277   -0.9848 C.ar    1  UNL1        0.0151
     15 C          63.9721   94.3324   -0.7131 C.ar    1  UNL1        0.0077
     16 C          65.5013   96.4238   -0.5191 C.2     1  UNL1        0.3412
     17 O          66.4750   96.6225   -1.6427 O.2     1  UNL1       -0.2449
     18 O          65.8731   96.8300    0.8762 O.3     1  UNL1       -0.4454
     19 C          65.0096   95.4058    2.8702 C.3     1  UNL1        0.0513
     20 C          64.9026   96.6236    2.0011 C.3     1  UNL1        0.2089
     21 C          59.7901   94.8322   -4.1265 C.ar    1  UNL1        0.0308
     22 C          58.9216   95.9025   -4.7180 C.ar    1  UNL1        0.0004
     23 C          59.3623   96.6276   -5.9550 C.ar    1  UNL1       -0.0001
     24 C          60.6715   96.2823   -6.6004 C.ar    1  UNL1        0.0031
     25 C          61.5401   95.2119   -6.0089 C.ar    1  UNL1        0.0366
     26 C          61.0994   94.4869   -4.7719 C.ar    1  UNL1        0.1363
     27 O          61.9680   93.4165   -4.1803 O.3     1  UNL1       -0.4717
     28 C          63.2957   93.0993   -4.8020 C.3     1  UNL1        0.2525
     29 C          56.3992   93.3082   -4.8112 C.3     1  UNL1        0.0338
     30 C          57.1344   92.1026   -5.3172 C.3     1  UNL1        0.0057
     31 C          55.6639   94.5137   -4.3052 C.3     1  UNL1        0.0057
     32 C          56.0083   93.6594   -6.2161 C.3     1  UNL1        0.0057
@<TRIPOS>BOND
     1    19    20    1
     2    20    18    1
     3    18    16    1
     4    16    17    2
     5    16    10    1
     6    10    11   ar
     7    11    12   ar
     8    12    13   ar
     9    13     1    1
    10     1     2   am
    11     2     3    2
    12     2     4    1
    13     4     5    2
    14     5     6    1
    15     6     7    2
    16     7    29    1
    17    29    30    1
    18    29    31    1
    19    29    32    1
    20     7     8    1
    21     8     9    1
    22     9    21    1
    23    21    22   ar
    24    22    23   ar
    25    23    24   ar
    26    24    25   ar
    27    25    26   ar
    28    26    27    1
    29    27    28    1
    30    13    14   ar
    31    14    15   ar
    32    15    10   ar
    33     9     1    1
    34    26    21   ar
    35     8     4    1
@<TRIPOS>MOLECULE
*****
 32 35 0 0 0
SMALL
GASTEIGER

@<TRIPOS>ATOM
      1 N          59.9907   93.8411   -1.2307 N.am    1  UNL1       -0.2510
      2 C          59.0614   93.0987   -0.3168 C.2     1  UNL1        0.2687
      3 O          59.2962   92.8130    1.1369 O.2     1  UNL1       -0.2682
      4 C          57.8560   92.6923   -1.1118 C.2     1  UNL1        0.1409
      5 N          56.5367   91.9823   -1.0382 N.2     1  UNL1       -0.1479
      6 N          55.9057   92.0348   -2.3980 N.2     1  UNL1       -0.1565
      7 C          56.8350   92.7771   -3.3120 C.2     1  UNL1        0.0650
      8 C          58.0404   93.1835   -2.5170 C.3     1  UNL1        0.1071
      9 C          59.3596   93.8935   -2.5906 C.3     1  UNL1        0.1164
     10 C          63.9725   95.6019   -0.0929 C.ar    1  UNL1        0.0757
     11 C          62.7206   96.4127    0.0669 C.ar    1  UNL1        0.0077
     12 C          61.3934   95.8258   -0.3123 C.ar    1  UNL1        0.0151
     13 C          61.3179   94.4280   -0.8514 C.ar    1  UNL1        0.0544
     14 C          62.5697   93.6173   -1.0112 C.ar    1  UNL1        0.0151
     15 C          63.8971   94.2041   -0.6320 C.ar    1  UNL1        0.0077
     16 C          65.2998   96.1888    0.2864 C.2     1  UNL1        0.3412
     17 O          66.4548   96.1099   -0.6673 O.2     1  UNL1       -0.2449
     18 O          65.4720   96.8547    1.6194 O.3     1  UNL1       -0.4454
     19 C          65.3233   96.7672    4.2117 C.3     1  UNL1        0.0513
     20 C          65.2293   96.0809    2.8813 C.3     1  UNL1        0.2089
     21 C          59.9451   94.5421   -3.8098 C.ar    1  UNL1        0.0308
     22 C          61.1055   93.9043   -4.5146 C.ar    1  UNL1        0.0004
     23 C          61.6909   94.5528   -5.7339 C.ar    1  UNL1       -0.0001
     24 C          61.1161   95.8391   -6.2484 C.ar    1  UNL1        0.0031
     25 C          59.9557   96.4770   -5.5436 C.ar    1  UNL1        0.0366
     26 C          59.3702   95.8285   -4.3243 C.ar    1  UNL1        0.1363
     27 O          58.2098   96.4663   -3.6196 O.3     1  UNL1       -0.4717
     28 C          58.3296   96.8515   -2.1749 C.3     1  UNL1        0.2525
     29 C          56.6002   93.0629   -4.7656 C.3     1  UNL1        0.0338
     30 C          55.9024   94.3399   -4.4018 C.3     1  UNL1        0.0057
     31 C          57.2979   91.7859   -5.1294 C.3     1  UNL1        0.0057
     32 C          56.3653   93.3487   -6.2193 C.3     1  UNL1        0.0057
@<TRIPOS>BOND
     1    19    20    1
     2    20    18    1
     3    18    16    1
     4    16    17    2
     5    16    10    1
     6    10    11   ar
     7    11    12   ar
     8    12    13   ar
     9    13     1    1
    10     1     2   am
    11     2     3    2
    12     2     4    1
    13     4     5    2
    14     5     6    1
    15     6     7    2
    16     7    29    1
    17    29    30    1
    18    29    31    1
    19    29    32    1
    20     7     8    1
    21     8     9    1
    22     9    21    1
    23    21    22   ar
    24    22    23   ar
    25    23    24   ar
    26    24    25   ar
    27    25    26   ar
    28    26    27    1
    29    27    28    1
    30    13    14   ar
    31    14    15   ar
    32    15    10   ar
    33     9     1    1
    34    26    21   ar
    35     8     4    1
@<TRIPOS>MOLECULE
*****
 32 35 0 0 0
SMALL
GASTEIGER

@<TRIPOS>ATOM
      1 N          58.8366   93.3163   -1.9936 N.am    1  UNL1       -0.2510
      2 C          57.4156   92.9429   -2.2960 C.2     1  UNL1        0.2687
      3 O          56.4812   92.2133   -1.3771 O.2     1  UNL1       -0.2682
      4 C          57.0931   93.4273   -3.6785 C.2     1  UNL1        0.1409
      5 N          56.0156   93.4959   -4.7197 N.2     1  UNL1       -0.1479
      6 N          56.5713   94.2111   -5.9154 N.2     1  UNL1       -0.1565
      7 C          57.9923   94.5845   -5.6131 C.2     1  UNL1        0.0650
      8 C          58.3148   94.1001   -4.2306 C.3     1  UNL1        0.1071
      9 C          59.3923   94.0315   -3.1894 C.3     1  UNL1        0.1164
     10 C          61.0447   92.4441    1.8291 C.ar    1  UNL1        0.0757
     11 C          59.7958   93.2747    1.8570 C.ar    1  UNL1        0.0077
     12 C          59.0599   93.5654    0.5828 C.ar    1  UNL1        0.0151
     13 C          59.5726   93.0256   -0.7194 C.ar    1  UNL1        0.0544
     14 C          60.8213   92.1951   -0.7473 C.ar    1  UNL1        0.0151
     15 C          61.5574   91.9043    0.5269 C.ar    1  UNL1        0.0077
     16 C          61.7807   92.1534    3.1034 C.2     1  UNL1        0.3412
     17 O          63.1860   92.6448    3.2867 O.2     1  UNL1       -0.2449
     18 O          61.1114   91.3713    4.1944 O.3     1  UNL1       -0.4454
     19 C          58.8443   90.9758    5.4001 C.3     1  UNL1        0.0513
     20 C          59.8826   91.9147    4.8613 C.3     1  UNL1        0.2089
     21 C          60.7817   94.5815   -3.3207 C.ar    1  UNL1        0.0308
     22 C          61.8096   93.8391   -4.1220 C.ar    1  UNL1        0.0004
     23 C          63.1989   94.3891   -4.2533 C.ar    1  UNL1       -0.0001
     24 C          63.5603   95.6815   -3.5834 C.ar    1  UNL1        0.0031
     25 C          62.5324   96.4241   -2.7821 C.ar    1  UNL1        0.0366
     26 C          61.1431   95.8741   -2.6508 C.ar    1  UNL1        0.1363
     27 O          60.1151   96.6166   -1.8495 O.3     1  UNL1       -0.4717
     28 C          60.3279   96.8425   -0.3820 C.3     1  UNL1        0.2525
     29 C          58.9267   95.3142   -6.5320 C.3     1  UNL1        0.0338
     30 C          59.2238   94.0307   -7.2492 C.3     1  UNL1        0.0057
     31 C          58.6297   96.5977   -5.8149 C.3     1  UNL1        0.0057
     32 C          59.8612   96.0439   -7.4510 C.3     1  UNL1        0.0057
@<TRIPOS>BOND
     1    19    20    1
     2    20    18    1
     3    18    16    1
     4    16    17    2
     5    16    10    1
     6    10    11   ar
     7    11    12   ar
     8    12    13   ar
     9    13     1    1
    10     1     2   am
    11     2     3    2
    12     2     4    1
    13     4     5    2
    14     5     6    1
    15     6     7    2
    16     7    29    1
    17    29    30    1
    18    29    31    1
    19    29    32    1
    20     7     8    1
    21     8     9    1
    22     9    21    1
    23    21    22   ar
    24    22    23   ar
    25    23    24   ar
    26    24    25   ar
    27    25    26   ar
    28    26    27    1
    29    27    28    1
    30    13    14   ar
    31    14    15   ar
    32    15    10   ar
    33     9     1    1
    34    26    21   ar
    35     8     4    1
@<TRIPOS>MOLECULE
*****
 32 35 0 0 0
SMALL
GASTEIGER

@<TRIPOS>ATOM
      1 N          63.4474   86.3866   13.6663 N.am    1  UNL1       -0.2510
      2 C          63.5183   85.9947   15.1125 C.2     1  UNL1        0.2687
      3 O          63.7530   86.9232   16.2670 O.2     1  UNL1       -0.2682
      4 C          63.3134   84.5114   15.2015 C.2     1  UNL1        0.1409
      5 N          63.2306   83.3526   16.1503 N.2     1  UNL1       -0.1479
      6 N          62.9818   82.1115   15.3454 N.2     1  UNL1       -0.1565
      7 C          62.9109   82.5033   13.8992 C.2     1  UNL1        0.0650
      8 C          63.1158   83.9866   13.8103 C.3     1  UNL1        0.1071
      9 C          63.1986   85.1454   12.8615 C.3     1  UNL1        0.1164
     10 C          63.9013   90.5537   12.0296 C.ar    1  UNL1        0.0757
     11 C          64.4526   90.2153   13.3830 C.ar    1  UNL1        0.0077
     12 C          64.3013   88.8263   13.9286 C.ar    1  UNL1        0.0151
     13 C          63.5987   87.7756   13.1208 C.ar    1  UNL1        0.0544
     14 C          63.0474   88.1140   11.7675 C.ar    1  UNL1        0.0151
     15 C          63.1987   89.5031   11.2218 C.ar    1  UNL1        0.0077
     16 C          64.0526   91.9428   11.4841 C.2     1  UNL1        0.3412
     17 O          63.4844   92.2863   10.1390 O.2     1  UNL1       -0.2449
     18 O          64.7720   92.9883   12.2836 O.3     1  UNL1       -0.4454
     19 C          66.9121   92.6032   10.8618 C.3     1  UNL1        0.0513
     20 C          66.2050   93.3107   11.9796 C.3     1  UNL1        0.2089
     21 C          63.0575   85.0754   11.3698 C.ar    1  UNL1        0.0308
     22 C          64.0617   84.3142   10.5563 C.ar    1  UNL1        0.0004
     23 C          63.9206   84.2442    9.0646 C.ar    1  UNL1       -0.0001
     24 C          62.7751   84.9355    8.3864 C.ar    1  UNL1        0.0031
     25 C          61.7708   85.6968    9.1999 C.ar    1  UNL1        0.0366
     26 C          61.9119   85.7668   10.6916 C.ar    1  UNL1        0.1363
     27 O          60.9076   86.5281   11.5051 O.3     1  UNL1       -0.4717
     28 C          60.0653   87.5867   10.8573 C.3     1  UNL1        0.2525
     29 C          62.6762   81.5748   12.7447 C.3     1  UNL1        0.0338
     30 C          61.2721   81.3414   13.2178 C.3     1  UNL1        0.0057
     31 C          64.0804   81.8082   12.2716 C.3     1  UNL1        0.0057
     32 C          62.4415   80.6464   11.5902 C.3     1  UNL1        0.0057
@<TRIPOS>BOND
     1    19    20    1
     2    20    18    1
     3    18    16    1
     4    16    17    2
     5    16    10    1
     6    10    11   ar
     7    11    12   ar
     8    12    13   ar
     9    13     1    1
    10     1     2   am
    11     2     3    2
    12     2     4    1
    13     4     5    2
    14     5     6    1
    15     6     7    2
    16     7    29    1
    17    29    30    1
    18    29    31    1
    19    29    32    1
    20     7     8    1
    21     8     9    1
    22     9    21    1
    23    21    22   ar
    24    22    23   ar
    25    23    24   ar
    26    24    25   ar
    27    25    26   ar
    28    26    27    1
    29    27    28    1
    30    13    14   ar
    31    14    15   ar
    32    15    10   ar
    33     9     1    1
    34    26    21   ar
    35     8     4    1
