@<TRIPOS>MOLECULE
*****
 15 16 0 0 0
SMALL
GASTEIGER

@<TRIPOS>ATOM
      1 C          60.5749   87.8506   10.8806 C.ar    1  UNL1        0.1677
      2 C          61.1357   87.7587    9.4924 C.ar    1  UNL1        0.0424
      3 C          62.0345   86.5592    9.4341 C.ar    1  UNL1        0.0407
      4 C          62.0292   85.9098   10.7862 C.ar    1  UNL1        0.1469
      5 O          61.1271   86.7079   11.6802 O.2     1  UNL1       -0.4518
      6 C          62.7921   84.6784   11.1759 C.ar    1  UNL1        0.0537
      7 C          63.5226   83.8870   10.1320 C.ar    1  UNL1        0.0062
      8 C          64.2854   82.6557   10.5217 C.ar    1  UNL1        0.0208
      9 C          64.3177   82.2158   11.9554 C.ar    1  UNL1        0.0989
     10 N          63.5871   83.0072   12.9993 N.ar    1  UNL1       -0.2422
     11 C          62.8243   84.2385   12.6096 C.ar    1  UNL1        0.1019
     12 O          58.9473   91.3990   11.5943 O.2     1  UNL1       -0.4086
     13 N          59.8939   90.3488   11.0937 N.2     1  UNL1       -0.0814
     14 C          59.6281   88.9008   11.3813 C.2     1  UNL1        0.1771
     15 H          59.1134   92.3035   11.4146 H       1  UNL1        0.3278
@<TRIPOS>BOND
     1    12    13    1
     2    13    14    2
     3    14     1    1
     4     1     2   ar
     5     2     3   ar
     6     3     4   ar
     7     4     6    1
     8     6     7   ar
     9     7     8   ar
    10     8     9   ar
    11     9    10   ar
    12    10    11   ar
    13     4     5   ar
    14     5     1   ar
    15    11     6   ar
    16    12    15    1
@<TRIPOS>MOLECULE
*****
 15 16 0 0 0
SMALL
GASTEIGER

@<TRIPOS>ATOM
      1 C          63.1427   90.1576   12.6186 C.ar    1  UNL1        0.1677
      2 C          63.4689   91.0641   11.4689 C.ar    1  UNL1        0.0424
      3 C          62.8765   90.4682   10.2263 C.ar    1  UNL1        0.0407
      4 C          62.1842   89.1934   10.6081 C.ar    1  UNL1        0.1469
      5 O          62.3487   89.0015   12.0866 O.2     1  UNL1       -0.4518
      6 C          61.4554   88.2723    9.6751 C.ar    1  UNL1        0.0537
      7 C          62.0122   86.9117    9.3775 C.ar    1  UNL1        0.0062
      8 C          61.2834   85.9907    8.4445 C.ar    1  UNL1        0.0208
      9 C          59.9977   86.4303    7.8091 C.ar    1  UNL1        0.0989
     10 N          59.4408   87.7909    8.1067 N.ar    1  UNL1       -0.2422
     11 C          60.1697   88.7119    9.0397 C.ar    1  UNL1        0.1019
     12 O          63.0839   90.0358   16.5849 O.2     1  UNL1       -0.4086
     13 N          62.6862   89.8235   15.1544 N.2     1  UNL1       -0.0814
     14 C          63.5405   90.3700   14.0492 C.2     1  UNL1        0.1771
     15 H          62.5502   89.6944   17.2752 H       1  UNL1        0.3278
@<TRIPOS>BOND
     1    12    13    1
     2    13    14    2
     3    14     1    1
     4     1     2   ar
     5     2     3   ar
     6     3     4   ar
     7     4     6    1
     8     6     7   ar
     9     7     8   ar
    10     8     9   ar
    11     9    10   ar
    12    10    11   ar
    13     4     5   ar
    14     5     1   ar
    15    11     6   ar
    16    12    15    1
@<TRIPOS>MOLECULE
*****
 15 16 0 0 0
SMALL
GASTEIGER

@<TRIPOS>ATOM
      1 C          64.5885   91.0335   13.7201 C.ar    1  UNL1        0.1677
      2 C          65.8848   91.1667   14.4631 C.ar    1  UNL1        0.0424
      3 C          66.8119   92.0026   13.6315 C.ar    1  UNL1        0.0407
      4 C          66.0887   92.3860   12.3745 C.ar    1  UNL1        0.1469
      5 O          64.7146   91.7871   12.4293 O.2     1  UNL1       -0.4518
      6 C          66.6425   93.2217   11.2586 C.ar    1  UNL1        0.0537
      7 C          67.4753   92.5842   10.1863 C.ar    1  UNL1        0.0062
      8 C          68.0291   93.4198    9.0705 C.ar    1  UNL1        0.0208
      9 C          67.7499   94.8930    9.0271 C.ar    1  UNL1        0.0989
     10 N          66.9170   95.5305   10.0994 N.ar    1  UNL1       -0.2422
     11 C          66.3633   94.6948   11.2152 C.ar    1  UNL1        0.1019
     12 O          61.9179   89.3425   16.1197 O.2     1  UNL1       -0.4086
     13 N          63.1277   90.0968   15.6537 N.2     1  UNL1       -0.0814
     14 C          63.3786   90.2791   14.1861 C.2     1  UNL1        0.1771
     15 H          61.7612   89.2287   17.0365 H       1  UNL1        0.3278
@<TRIPOS>BOND
     1    12    13    1
     2    13    14    2
     3    14     1    1
     4     1     2   ar
     5     2     3   ar
     6     3     4   ar
     7     4     6    1
     8     6     7   ar
     9     7     8   ar
    10     8     9   ar
    11     9    10   ar
    12    10    11   ar
    13     4     5   ar
    14     5     1   ar
    15    11     6   ar
    16    12    15    1
@<TRIPOS>MOLECULE
*****
 15 16 0 0 0
SMALL
GASTEIGER

@<TRIPOS>ATOM
      1 C          62.7998   87.7342   11.9678 C.ar    1  UNL1        0.1677
      2 C          62.0626   87.2265   10.7641 C.ar    1  UNL1        0.0424
      3 C          61.9640   85.7340   10.8764 C.ar    1  UNL1        0.0407
      4 C          62.6403   85.3193   12.1495 C.ar    1  UNL1        0.1469
      5 O          63.1569   86.5555   12.8240 O.2     1  UNL1       -0.4518
      6 C          62.7763   83.9148   12.6586 C.ar    1  UNL1        0.0537
      7 C          62.8052   82.7668   11.6937 C.ar    1  UNL1        0.0062
      8 C          62.9411   81.3624   12.2029 C.ar    1  UNL1        0.0208
      9 C          63.0481   81.1061   13.6770 C.ar    1  UNL1        0.0989
     10 N          63.0191   82.2542   14.6419 N.ar    1  UNL1       -0.2422
     11 C          62.8832   83.6585   14.1327 C.ar    1  UNL1        0.1019
     12 O          63.1394   91.1784   13.9099 O.2     1  UNL1       -0.4086
     13 N          62.8161   89.7439   13.6143 N.2     1  UNL1       -0.0814
     14 C          63.1232   89.1688   12.2634 C.2     1  UNL1        0.1771
     15 H          62.9475   91.5376   14.7538 H       1  UNL1        0.3278
@<TRIPOS>BOND
     1    12    13    1
     2    13    14    2
     3    14     1    1
     4     1     2   ar
     5     2     3   ar
     6     3     4   ar
     7     4     6    1
     8     6     7   ar
     9     7     8   ar
    10     8     9   ar
    11     9    10   ar
    12    10    11   ar
    13     4     5   ar
    14     5     1   ar
    15    11     6   ar
    16    12    15    1
@<TRIPOS>MOLECULE
*****
 15 16 0 0 0
SMALL
GASTEIGER

@<TRIPOS>ATOM
      1 C          63.1604   83.5726   11.5091 C.ar    1  UNL1        0.1677
      2 C          63.8662   83.4604   10.1902 C.ar    1  UNL1        0.0424
      3 C          63.3511   84.5481    9.2949 C.ar    1  UNL1        0.0407
      4 C          62.3271   85.3325   10.0604 C.ar    1  UNL1        0.1469
      5 O          62.2093   84.7297   11.4289 O.2     1  UNL1       -0.4518
      6 C          61.5562   86.5127    9.5476 C.ar    1  UNL1        0.0537
      7 C          60.4243   86.3083    8.5847 C.ar    1  UNL1        0.0062
      8 C          59.6535   87.4884    8.0719 C.ar    1  UNL1        0.0208
      9 C          60.0146   88.8731    8.5219 C.ar    1  UNL1        0.0989
     10 N          61.1465   89.0775    9.4847 N.ar    1  UNL1       -0.2422
     11 C          61.9172   87.8974    9.9975 C.ar    1  UNL1        0.1019
     12 O          62.4837   81.6272   14.9013 O.2     1  UNL1       -0.4086
     13 N          62.2749   82.5159   13.7112 N.2     1  UNL1       -0.0814
     14 C          63.3693   82.6838   12.6992 C.2     1  UNL1        0.1771
     15 H          61.8000   81.5223   15.5334 H       1  UNL1        0.3278
@<TRIPOS>BOND
     1    12    13    1
     2    13    14    2
     3    14     1    1
     4     1     2   ar
     5     2     3   ar
     6     3     4   ar
     7     4     6    1
     8     6     7   ar
     9     7     8   ar
    10     8     9   ar
    11     9    10   ar
    12    10    11   ar
    13     4     5   ar
    14     5     1   ar
    15    11     6   ar
    16    12    15    1
@<TRIPOS>MOLECULE
*****
 15 16 0 0 0
SMALL
GASTEIGER

@<TRIPOS>ATOM
      1 C          64.1945   90.3240   14.3711 C.ar    1  UNL1        0.1677
      2 C          64.4880   88.8643   14.5536 C.ar    1  UNL1        0.0424
      3 C          63.8000   88.1121   13.4533 C.ar    1  UNL1        0.0407
      4 C          63.0813   89.1069   12.5907 C.ar    1  UNL1        0.1469
      5 O          63.3251   90.4739   13.1580 O.2     1  UNL1       -0.4518
      6 C          62.2625   88.7902   11.3744 C.ar    1  UNL1        0.0537
      7 C          62.1994   87.3832   10.8583 C.ar    1  UNL1        0.0062
      8 C          61.3806   87.0666    9.6420 C.ar    1  UNL1        0.0208
      9 C          60.6250   88.1569    8.9418 C.ar    1  UNL1        0.0989
     10 N          60.6881   89.5638    9.4580 N.ar    1  UNL1       -0.2422
     11 C          61.5069   89.8805   10.6742 C.ar    1  UNL1        0.1019
     12 O          64.3439   93.0134   17.2856 O.2     1  UNL1       -0.4086
     13 N          63.8541   91.8993   16.4089 N.2     1  UNL1       -0.0814
     14 C          64.6844   91.4381   15.2479 C.2     1  UNL1        0.1771
     15 H          63.8252   93.3015   18.0109 H       1  UNL1        0.3278
@<TRIPOS>BOND
     1    12    13    1
     2    13    14    2
     3    14     1    1
     4     1     2   ar
     5     2     3   ar
     6     3     4   ar
     7     4     6    1
     8     6     7   ar
     9     7     8   ar
    10     8     9   ar
    11     9    10   ar
    12    10    11   ar
    13     4     5   ar
    14     5     1   ar
    15    11     6   ar
    16    12    15    1
@<TRIPOS>MOLECULE
*****
 15 16 0 0 0
SMALL
GASTEIGER

@<TRIPOS>ATOM
      1 C          61.8401   87.1165   10.8373 C.ar    1  UNL1        0.1677
      2 C          62.3215   86.4148    9.6020 C.ar    1  UNL1        0.0424
      3 C          62.7086   85.0169    9.9842 C.ar    1  UNL1        0.0407
      4 C          62.4664   84.8547   11.4556 C.ar    1  UNL1        0.1469
      5 O          61.9297   86.1523   11.9829 O.2     1  UNL1       -0.4518
      6 C          62.7171   83.6128   12.2587 C.ar    1  UNL1        0.0537
      7 C          62.7487   82.2750   11.5810 C.ar    1  UNL1        0.0062
      8 C          62.9993   81.0332   12.3841 C.ar    1  UNL1        0.0208
      9 C          63.2183   81.1291   13.8649 C.ar    1  UNL1        0.0989
     10 N          63.1867   82.4669   14.5426 N.ar    1  UNL1       -0.2422
     11 C          62.9361   83.7087   13.7395 C.ar    1  UNL1        0.1019
     12 O          60.0524   90.5251    9.8702 O.2     1  UNL1       -0.4086
     13 N          60.5381   89.1081    9.7940 N.2     1  UNL1       -0.0814
     14 C          61.3544   88.5337   10.9137 C.2     1  UNL1        0.1771
     15 H          59.5425   90.8839    9.1707 H       1  UNL1        0.3278
@<TRIPOS>BOND
     1    12    13    1
     2    13    14    2
     3    14     1    1
     4     1     2   ar
     5     2     3   ar
     6     3     4   ar
     7     4     6    1
     8     6     7   ar
     9     7     8   ar
    10     8     9   ar
    11     9    10   ar
    12    10    11   ar
    13     4     5   ar
    14     5     1   ar
    15    11     6   ar
    16    12    15    1
@<TRIPOS>MOLECULE
*****
 15 16 0 0 0
SMALL
GASTEIGER

@<TRIPOS>ATOM
      1 C          63.8857   87.3878   13.7814 C.ar    1  UNL1        0.1677
      2 C          64.6025   86.8841   14.9990 C.ar    1  UNL1        0.0424
      3 C          64.4370   85.3942   15.0511 C.ar    1  UNL1        0.0407
      4 C          63.6178   84.9771   13.8658 C.ar    1  UNL1        0.1469
      5 O          63.2771   86.2092   13.0811 O.2     1  UNL1       -0.4518
      6 C          63.2109   83.5741   13.5250 C.ar    1  UNL1        0.0537
      7 C          62.3861   82.7767   14.4914 C.ar    1  UNL1        0.0062
      8 C          61.9792   81.3738   14.1506 C.ar    1  UNL1        0.0208
      9 C          62.3970   80.7683   12.8434 C.ar    1  UNL1        0.0989
     10 N          63.2217   81.5657   11.8770 N.ar    1  UNL1       -0.2422
     11 C          63.6287   82.9686   12.2178 C.ar    1  UNL1        0.1019
     12 O          63.1080   91.2793   13.8171 O.2     1  UNL1       -0.4086
     13 N          63.2001   89.8483   14.2569 N.2     1  UNL1       -0.0814
     14 C          63.7936   88.8189   13.3415 C.2     1  UNL1        0.1771
     15 H          62.7373   91.9223   14.3890 H       1  UNL1        0.3278
@<TRIPOS>BOND
     1    12    13    1
     2    13    14    2
     3    14     1    1
     4     1     2   ar
     5     2     3   ar
     6     3     4   ar
     7     4     6    1
     8     6     7   ar
     9     7     8   ar
    10     8     9   ar
    11     9    10   ar
    12    10    11   ar
    13     4     5   ar
    14     5     1   ar
    15    11     6   ar
    16    12    15    1
@<TRIPOS>MOLECULE
*****
 15 16 0 0 0
SMALL
GASTEIGER

@<TRIPOS>ATOM
      1 C          60.4530   87.2730    8.9752 C.ar    1  UNL1        0.1677
      2 C          61.1483   88.1983    9.9294 C.ar    1  UNL1        0.0424
      3 C          62.0853   87.3806   10.7682 C.ar    1  UNL1        0.0407
      4 C          61.9690   85.9500   10.3323 C.ar    1  UNL1        0.1469
      5 O          60.9603   85.8836    9.2242 O.2     1  UNL1       -0.4518
      6 C          62.7284   84.7896   10.9042 C.ar    1  UNL1        0.0537
      7 C          63.5365   83.9045   10.0024 C.ar    1  UNL1        0.0062
      8 C          64.2958   82.7441   10.5743 C.ar    1  UNL1        0.0208
      9 C          64.2469   82.4690   12.0480 C.ar    1  UNL1        0.0989
     10 N          63.4387   83.3541   12.9499 N.ar    1  UNL1       -0.2422
     11 C          62.6794   84.5144   12.3779 C.ar    1  UNL1        0.1019
     12 O          58.5172   89.3857    6.2295 O.2     1  UNL1       -0.4086
     13 N          59.5400   88.9908    7.2530 N.2     1  UNL1       -0.0814
     14 C          59.4301   87.6680    7.9516 C.2     1  UNL1        0.1771
     15 H          58.5859   90.2121    5.7931 H       1  UNL1        0.3278
@<TRIPOS>BOND
     1    12    13    1
     2    13    14    2
     3    14     1    1
     4     1     2   ar
     5     2     3   ar
     6     3     4   ar
     7     4     6    1
     8     6     7   ar
     9     7     8   ar
    10     8     9   ar
    11     9    10   ar
    12    10    11   ar
    13     4     5   ar
    14     5     1   ar
    15    11     6   ar
    16    12    15    1
