@<TRIPOS>MOLECULE
*****
 63 70 0 0 0
SMALL
GASTEIGER

@<TRIPOS>ATOM
      1 N          65.6530   89.4918   14.4263 N.3     1  UNL1       -0.1862
      2 C          65.9421   88.2587   15.2299 C.3     1  UNL1        0.1775
      3 C          65.1167   87.0223   15.0296 C.2     1  UNL1        0.2452
      4 O          65.4058   85.7891   15.8333 O.2     1  UNL1       -0.2732
      5 N          64.0022   87.0190   14.0257 N.am    1  UNL1       -0.2541
      6 C          63.1768   85.7827   13.8254 C.3     1  UNL1        0.1577
      7 C          62.0624   85.7794   12.8215 C.2     1  UNL1        0.2445
      8 O          61.2370   84.5430   12.6212 O.2     1  UNL1       -0.2731
      9 N          61.7732   87.0126   12.0178 N.am    1  UNL1       -0.2705
     10 C          62.5986   88.2489   12.2181 C.3     1  UNL1        0.1359
     11 C          63.7132   88.2521   13.2221 C.3     1  UNL1        0.1908
     12 N          64.5386   89.4885   13.4224 N.am    1  UNL1       -0.1863
     13 C          64.2494   90.7217   12.6187 C.2     1  UNL1        0.3191
     14 O          63.1350   90.7184   11.6148 O.2     1  UNL1       -0.2512
     15 N          65.0748   91.9580   12.8190 N.am    1  UNL1       -0.2836
     16 H          65.8063   91.9601   13.4779 H       1  UNL1        0.1513
     17 C          66.4784   90.7281   14.6266 C.3     1  UNL1        0.1188
     18 C          67.0616   92.7878   16.0988 C.2     1  UNL1       -0.0034
     19 C          66.0879   91.7292   15.6732 C.2     1  UNL1       -0.0071
     20 C          63.4659   84.5496   14.6290 C.3     1  UNL1        0.0556
     21 C          63.2332   83.1934   14.0317 C.ar    1  UNL1       -0.0198
     22 C          62.1488   82.3108   14.5748 C.ar    1  UNL1       -0.0011
     23 C          61.9161   80.9546   13.9775 C.ar    1  UNL1        0.0363
     24 C          62.7678   80.4812   12.8371 C.ar    1  UNL1        0.1337
     25 O          62.5350   79.1250   12.2399 O.3     1  UNL1       -0.5055
     26 C          63.8522   81.3639   12.2940 C.ar    1  UNL1        0.0363
     27 C          64.0849   82.7200   12.8913 C.ar    1  UNL1       -0.0011
     28 H          61.8576   78.5737   12.5791 H       1  UNL1        0.2922
     29 C          60.6588   87.0093   11.0139 C.3     1  UNL1        0.1217
     30 C          60.3078   88.2689   10.2788 C.ar    1  UNL1        0.0135
     31 C          59.8682   89.4841   11.0404 C.ar    1  UNL1       -0.0012
     32 C          59.5172   90.7436   10.3054 C.ar    1  UNL1       -0.0002
     33 C          59.6058   90.7880    8.8088 C.ar    1  UNL1        0.0015
     34 C          60.0455   89.5729    8.0471 C.ar    1  UNL1        0.0170
     35 C          60.2271   89.3193    6.5799 C.ar    1  UNL1        0.0186
     36 C          60.6904   87.9030    6.4081 C.ar    1  UNL1        0.0759
     37 N          60.7950   87.2813    7.7691 N.ar    1  UNL1       -0.3242
     38 C          61.2231   85.8745    8.0653 C.3     1  UNL1        0.1305
     39 C          60.3965   88.3133    8.7821 C.ar    1  UNL1        0.0575
     40 C          59.9876   90.3084    5.4778 C.ar    1  UNL1        0.0015
     41 C          61.1356   90.7944    4.6436 C.ar    1  UNL1        0.0002
     42 C          60.8959   91.7834    3.5417 C.ar    1  UNL1        0.0046
     43 C          59.5084   92.2865    3.2739 C.ar    1  UNL1        0.0546
     44 C          58.3604   91.8005    4.1082 C.ar    1  UNL1        0.0046
     45 C          58.6001   90.8115    5.2101 C.ar    1  UNL1        0.0002
     46 C          59.2689   93.2756    2.1720 C.2     1  UNL1        0.2590
     47 O          59.6326   94.7177    2.3664 O.2     1  UNL1       -0.2688
     48 N          58.6656   92.8226    0.8754 N.am    1  UNL1       -0.2429
     49 H          58.4269   91.8760    0.7477 H       1  UNL1        0.1696
     50 N          58.4261   93.8117   -0.2265 N.3     1  UNL1       -0.2029
     51 C          57.0834   93.8831   -0.8913 C.3     1  UNL1        0.1092
     52 C          56.8439   94.8722   -1.9933 C.3     1  UNL1        0.0915
     53 N          57.9470   95.7899   -2.4303 N.3     1  UNL1       -0.2690
     54 C          57.7075   96.7790   -3.5322 C.3     1  UNL1        0.0897
     55 C          59.2897   95.7184   -1.7654 C.3     1  UNL1        0.0915
     56 C          59.5293   94.7293   -0.6635 C.3     1  UNL1        0.1092
     57 C          64.7858   93.1911   12.0154 C.3     1  UNL1        0.1177
     58 C          65.7852   93.6831   11.0108 C.ar    1  UNL1       -0.0025
     59 C          66.7822   92.7325   10.4173 C.ar    1  UNL1       -0.0026
     60 C          67.7816   93.2244    9.4127 C.ar    1  UNL1       -0.0003
     61 C          67.7840   94.6669    9.0016 C.ar    1  UNL1       -0.0000
     62 C          66.7869   95.6176    9.5952 C.ar    1  UNL1       -0.0003
     63 C          65.7875   95.1257   10.5997 C.ar    1  UNL1       -0.0026
@<TRIPOS>BOND
     1    18    19    2
     2    19    17    1
     3    17     1    1
     4     1     2    1
     5     2     3    1
     6     3     4    2
     7     3     5   am
     8     5     6    1
     9     6    20    1
    10    20    21    1
    11    21    22   ar
    12    22    23   ar
    13    23    24   ar
    14    24    25    1
    15    24    26   ar
    16    26    27   ar
    17     6     7    1
    18     7     8    2
    19     7     9   am
    20     9    29    1
    21    29    30    1
    22    30    31   ar
    23    31    32   ar
    24    32    33   ar
    25    33    34   ar
    26    34    35   ar
    27    35    40    1
    28    40    41   ar
    29    41    42   ar
    30    42    43   ar
    31    43    46    1
    32    46    47    2
    33    46    48   am
    34    48    50    1
    35    50    51    1
    36    51    52    1
    37    52    53    1
    38    53    54    1
    39    53    55    1
    40    55    56    1
    41    43    44   ar
    42    44    45   ar
    43    35    36   ar
    44    36    37   ar
    45    37    38    1
    46    37    39   ar
    47     9    10    1
    48    11    10    1
    49    11    12    1
    50    12    13   am
    51    13    14    2
    52    13    15   am
    53    15    57    1
    54    57    58    1
    55    58    59   ar
    56    59    60   ar
    57    60    61   ar
    58    61    62   ar
    59    62    63   ar
    60    12     1    1
    61    63    58   ar
    62    11     5    1
    63    27    21   ar
    64    39    30   ar
    65    39    34   ar
    66    45    40   ar
    67    56    50    1
    68    25    28    1
    69    48    49    1
    70    15    16    1
@<TRIPOS>MOLECULE
*****
 63 70 0 0 0
SMALL
GASTEIGER

@<TRIPOS>ATOM
      1 N          65.4532   89.9079   13.8159 N.3     1  UNL1       -0.1862
      2 C          65.8680   88.7961   14.7334 C.3     1  UNL1        0.1775
      3 C          65.1122   87.5004   14.7311 C.2     1  UNL1        0.2452
      4 O          65.5270   86.3885   15.6487 O.2     1  UNL1       -0.2732
      5 N          63.9417   87.3165   13.8113 N.am    1  UNL1       -0.2541
      6 C          63.1860   86.0208   13.8090 C.3     1  UNL1        0.1577
      7 C          62.0155   85.8369   12.8892 C.2     1  UNL1        0.2445
      8 O          61.2598   84.5412   12.8869 O.2     1  UNL1       -0.2731
      9 N          61.6007   86.9487   11.9716 N.am    1  UNL1       -0.2705
     10 C          62.3565   88.2444   11.9739 C.3     1  UNL1        0.1359
     11 C          63.5270   88.4283   12.8938 C.3     1  UNL1        0.1908
     12 N          64.2827   89.7240   12.8961 N.am    1  UNL1       -0.1863
     13 C          63.8679   90.8358   11.9786 C.2     1  UNL1        0.3191
     14 O          62.6975   90.6519   11.0588 O.2     1  UNL1       -0.2512
     15 N          64.6237   92.1315   11.9809 N.am    1  UNL1       -0.2836
     16 H          65.3919   92.2522   12.5846 H       1  UNL1        0.1513
     17 C          66.2090   91.2036   13.8183 C.3     1  UNL1        0.1188
     18 C          66.9495   92.7152   15.7973 C.2     1  UNL1       -0.0034
     19 C          67.1676   91.5107   14.9303 C.2     1  UNL1       -0.0071
     20 C          63.6007   84.9090   14.7265 C.3     1  UNL1        0.0556
     21 C          63.3388   83.4828   14.3427 C.ar    1  UNL1       -0.0198
     22 C          62.1720   82.7490   14.9344 C.ar    1  UNL1       -0.0011
     23 C          61.9101   81.3228   14.5507 C.ar    1  UNL1        0.0363
     24 C          62.8150   80.6303   13.5753 C.ar    1  UNL1        0.1337
     25 O          62.5531   79.2040   13.1915 O.3     1  UNL1       -0.5055
     26 C          63.9819   81.3640   12.9835 C.ar    1  UNL1        0.0363
     27 C          64.2438   82.7902   13.3672 C.ar    1  UNL1       -0.0011
     28 H          61.8242   78.7457   13.5611 H       1  UNL1        0.2922
     29 C          60.4302   86.7648   11.0518 C.3     1  UNL1        0.1217
     30 C          60.5823   87.0272    9.5827 C.ar    1  UNL1        0.0135
     31 C          61.1030   85.9496    8.6784 C.ar    1  UNL1       -0.0012
     32 C          61.2551   86.2119    7.2094 C.ar    1  UNL1       -0.0002
     33 C          60.8865   87.5517    6.6447 C.ar    1  UNL1        0.0015
     34 C          60.3658   88.6292    7.5490 C.ar    1  UNL1        0.0170
     35 C          59.9244   90.0376    7.2815 C.ar    1  UNL1        0.0186
     36 C          59.4996   90.6458    8.5851 C.ar    1  UNL1        0.0759
     37 N          59.6783   89.6133    9.6583 N.ar    1  UNL1       -0.3242
     38 C          59.3750   89.7951   11.1160 C.3     1  UNL1        0.1305
     39 C          60.2137   88.3670    9.0180 C.ar    1  UNL1        0.0575
     40 C          59.9104   90.7184    5.9448 C.ar    1  UNL1        0.0015
     41 C          58.6289   91.2774    5.4013 C.ar    1  UNL1        0.0002
     42 C          58.6150   91.9581    4.0647 C.ar    1  UNL1        0.0046
     43 C          59.8824   92.0798    3.2717 C.ar    1  UNL1        0.0546
     44 C          61.1638   91.5208    3.8152 C.ar    1  UNL1        0.0046
     45 C          61.1778   90.8401    5.1518 C.ar    1  UNL1        0.0002
     46 C          59.8683   92.7605    1.9351 C.2     1  UNL1        0.2590
     47 O          59.7093   94.2498    1.8536 O.2     1  UNL1       -0.2688
     48 N          60.0133   91.9519    0.6800 N.am    1  UNL1       -0.2429
     49 H          60.1177   90.9745    0.7334 H       1  UNL1        0.1696
     50 N          59.9993   92.6327   -0.6565 N.3     1  UNL1       -0.2029
     51 C          61.2569   93.2432   -1.2004 C.3     1  UNL1        0.1092
     52 C          61.2429   93.9240   -2.5369 C.3     1  UNL1        0.0915
     53 N          59.9714   93.9944   -3.3295 N.3     1  UNL1       -0.2690
     54 C          59.9573   94.6751   -4.6660 C.3     1  UNL1        0.0897
     55 C          58.7138   93.3839   -2.7856 C.3     1  UNL1        0.0915
     56 C          58.7278   92.7031   -1.4491 C.3     1  UNL1        0.1092
     57 C          64.2090   93.2433   11.0634 C.3     1  UNL1        0.1177
     58 C          65.2484   94.1173   10.4264 C.ar    1  UNL1       -0.0025
     59 C          66.5045   93.5095    9.8762 C.ar    1  UNL1       -0.0026
     60 C          67.5440   94.3834    9.2391 C.ar    1  UNL1       -0.0003
     61 C          67.3273   95.8651    9.1523 C.ar    1  UNL1       -0.0000
     62 C          66.0712   96.4729    9.7024 C.ar    1  UNL1       -0.0003
     63 C          65.0317   95.5990   10.3395 C.ar    1  UNL1       -0.0026
@<TRIPOS>BOND
     1    18    19    2
     2    19    17    1
     3    17     1    1
     4     1     2    1
     5     2     3    1
     6     3     4    2
     7     3     5   am
     8     5     6    1
     9     6    20    1
    10    20    21    1
    11    21    22   ar
    12    22    23   ar
    13    23    24   ar
    14    24    25    1
    15    24    26   ar
    16    26    27   ar
    17     6     7    1
    18     7     8    2
    19     7     9   am
    20     9    29    1
    21    29    30    1
    22    30    31   ar
    23    31    32   ar
    24    32    33   ar
    25    33    34   ar
    26    34    35   ar
    27    35    40    1
    28    40    41   ar
    29    41    42   ar
    30    42    43   ar
    31    43    46    1
    32    46    47    2
    33    46    48   am
    34    48    50    1
    35    50    51    1
    36    51    52    1
    37    52    53    1
    38    53    54    1
    39    53    55    1
    40    55    56    1
    41    43    44   ar
    42    44    45   ar
    43    35    36   ar
    44    36    37   ar
    45    37    38    1
    46    37    39   ar
    47     9    10    1
    48    11    10    1
    49    11    12    1
    50    12    13   am
    51    13    14    2
    52    13    15   am
    53    15    57    1
    54    57    58    1
    55    58    59   ar
    56    59    60   ar
    57    60    61   ar
    58    61    62   ar
    59    62    63   ar
    60    12     1    1
    61    63    58   ar
    62    11     5    1
    63    27    21   ar
    64    39    30   ar
    65    39    34   ar
    66    45    40   ar
    67    56    50    1
    68    25    28    1
    69    48    49    1
    70    15    16    1
@<TRIPOS>MOLECULE
*****
 63 70 0 0 0
SMALL
GASTEIGER

@<TRIPOS>ATOM
      1 N          64.5522   83.1550   13.3457 N.3     1  UNL1       -0.1862
      2 C          65.1609   84.0072   14.4196 C.3     1  UNL1        0.1775
      3 C          64.7510   85.4433   14.5599 C.2     1  UNL1        0.2452
      4 O          65.3597   86.2954   15.6339 O.2     1  UNL1       -0.2732
      5 N          63.7324   86.0272   13.6264 N.am    1  UNL1       -0.2541
      6 C          63.3225   87.4632   13.7668 C.3     1  UNL1        0.1577
      7 C          62.3039   88.0471   12.8333 C.2     1  UNL1        0.2445
      8 O          61.8940   89.4832   12.9736 O.2     1  UNL1       -0.2731
      9 N          61.6951   87.1949   11.7593 N.am    1  UNL1       -0.2705
     10 C          62.1050   85.7589   11.6189 C.3     1  UNL1        0.1359
     11 C          63.1237   85.1750   12.5525 C.3     1  UNL1        0.1908
     12 N          63.5336   83.7389   12.4122 N.am    1  UNL1       -0.1863
     13 C          62.9248   82.8867   11.3382 C.2     1  UNL1        0.3191
     14 O          61.9063   83.4706   10.4047 O.2     1  UNL1       -0.2512
     15 N          63.3348   81.4507   11.1979 N.am    1  UNL1       -0.2836
     16 H          64.0033   81.0675   11.8106 H       1  UNL1        0.1513
     17 C          64.9621   81.7190   13.2053 C.3     1  UNL1        0.1188
     18 C          62.7572   80.7991   14.2263 C.2     1  UNL1       -0.0034
     19 C          64.2260   80.6517   13.9597 C.2     1  UNL1       -0.0071
     20 C          63.9312   88.3154   14.8407 C.3     1  UNL1        0.0556
     21 C          64.4468   89.6845   14.5095 C.ar    1  UNL1       -0.0198
     22 C          64.8414   90.6238   15.6104 C.ar    1  UNL1       -0.0011
     23 C          65.3571   91.9929   15.2792 C.ar    1  UNL1        0.0363
     24 C          65.4782   92.4227   13.8473 C.ar    1  UNL1        0.1337
     25 O          65.9939   93.7918   13.5161 O.3     1  UNL1       -0.5055
     26 C          65.0836   91.4833   12.7463 C.ar    1  UNL1        0.0363
     27 C          64.5680   90.1142   13.0775 C.ar    1  UNL1       -0.0011
     28 H          66.2404   94.3785   14.2038 H       1  UNL1        0.2922
     29 C          60.6766   87.7788   10.8258 C.3     1  UNL1        0.1217
     30 C          61.0556   88.9069    9.9126 C.ar    1  UNL1        0.0135
     31 C          62.0884   89.9058   10.3433 C.ar    1  UNL1       -0.0012
     32 C          62.4675   91.0338    9.4302 C.ar    1  UNL1       -0.0002
     33 C          61.8138   91.1629    8.0863 C.ar    1  UNL1        0.0015
     34 C          60.7810   90.1640    7.6556 C.ar    1  UNL1        0.0170
     35 C          59.9721   90.0350    6.3990 C.ar    1  UNL1        0.0186
     36 C          59.0931   88.8272    6.5356 C.ar    1  UNL1        0.0759
     37 N          59.3587   88.2098    7.8765 N.ar    1  UNL1       -0.3242
     38 C          58.6973   86.9819    8.4284 C.3     1  UNL1        0.1305
     39 C          60.4019   89.0360    8.5687 C.ar    1  UNL1        0.0575
     40 C          60.0318   90.9527    5.2139 C.ar    1  UNL1        0.0015
     41 C          58.7925   91.6582    4.7485 C.ar    1  UNL1        0.0002
     42 C          58.8523   92.5758    3.5635 C.ar    1  UNL1        0.0046
     43 C          60.1511   92.7879    2.8438 C.ar    1  UNL1        0.0546
     44 C          61.3904   92.0824    3.3092 C.ar    1  UNL1        0.0046
     45 C          61.3306   91.1648    4.4943 C.ar    1  UNL1        0.0002
     46 C          60.2107   93.7056    1.6588 C.2     1  UNL1        0.2590
     47 O          59.8178   95.1458    1.8049 O.2     1  UNL1       -0.2688
     48 N          60.6633   93.1831    0.3275 N.am    1  UNL1       -0.2429
     49 H          60.9212   92.2378    0.2315 H       1  UNL1        0.1696
     50 N          60.7229   94.1008   -0.8575 N.3     1  UNL1       -0.2029
     51 C          62.0348   94.6890   -1.2852 C.3     1  UNL1        0.1092
     52 C          62.0945   95.6068   -2.4701 C.3     1  UNL1        0.0915
     53 N          60.8423   95.9362   -3.2274 N.3     1  UNL1       -0.2690
     54 C          60.9019   96.8539   -4.4124 C.3     1  UNL1        0.0897
     55 C          59.5304   95.3479   -2.7997 C.3     1  UNL1        0.0915
     56 C          59.4707   94.4302   -1.6148 C.3     1  UNL1        0.1092
     57 C          62.7261   80.5985   10.1240 C.3     1  UNL1        0.1177
     58 C          63.0826   79.1447   10.0280 C.ar    1  UNL1       -0.0025
     59 C          62.5012   78.1639   11.0026 C.ar    1  UNL1       -0.0026
     60 C          62.8578   76.7100   10.9066 C.ar    1  UNL1       -0.0003
     61 C          63.7958   76.2370    9.8359 C.ar    1  UNL1       -0.0000
     62 C          64.3773   77.2178    8.8612 C.ar    1  UNL1       -0.0003
     63 C          64.0207   78.6717    8.9572 C.ar    1  UNL1       -0.0026
@<TRIPOS>BOND
     1    18    19    2
     2    19    17    1
     3    17     1    1
     4     1     2    1
     5     2     3    1
     6     3     4    2
     7     3     5   am
     8     5     6    1
     9     6    20    1
    10    20    21    1
    11    21    22   ar
    12    22    23   ar
    13    23    24   ar
    14    24    25    1
    15    24    26   ar
    16    26    27   ar
    17     6     7    1
    18     7     8    2
    19     7     9   am
    20     9    29    1
    21    29    30    1
    22    30    31   ar
    23    31    32   ar
    24    32    33   ar
    25    33    34   ar
    26    34    35   ar
    27    35    40    1
    28    40    41   ar
    29    41    42   ar
    30    42    43   ar
    31    43    46    1
    32    46    47    2
    33    46    48   am
    34    48    50    1
    35    50    51    1
    36    51    52    1
    37    52    53    1
    38    53    54    1
    39    53    55    1
    40    55    56    1
    41    43    44   ar
    42    44    45   ar
    43    35    36   ar
    44    36    37   ar
    45    37    38    1
    46    37    39   ar
    47     9    10    1
    48    11    10    1
    49    11    12    1
    50    12    13   am
    51    13    14    2
    52    13    15   am
    53    15    57    1
    54    57    58    1
    55    58    59   ar
    56    59    60   ar
    57    60    61   ar
    58    61    62   ar
    59    62    63   ar
    60    12     1    1
    61    63    58   ar
    62    11     5    1
    63    27    21   ar
    64    39    30   ar
    65    39    34   ar
    66    45    40   ar
    67    56    50    1
    68    25    28    1
    69    48    49    1
    70    15    16    1
