@<TRIPOS>MOLECULE
*****
 32 36 0 0 0
SMALL
GASTEIGER

@<TRIPOS>ATOM
      1 C          63.0379   86.3314   12.5051 C.2     1  UNL1        0.2506
      2 O          63.5888   87.2103   13.5886 O.2     1  UNL1       -0.2699
      3 N          62.2362   86.9309   11.3880 N.am    1  UNL1       -0.2723
      4 C          61.6852   86.0520   10.3046 C.3     1  UNL1        0.1257
      5 C          60.8835   86.6517    9.1875 C.3     1  UNL1        0.1637
      6 O          60.6329   88.1301    9.1539 O.3     1  UNL1       -0.3502
      7 C          61.1838   89.0091   10.2374 C.3     1  UNL1        0.1622
      8 C          61.9855   88.4095   11.3544 C.3     1  UNL1        0.1096
      9 C          64.0150   81.8752   10.0176 C.3     1  UNL1        0.0310
     10 C          63.7772   82.6248   11.2949 C.ar    1  UNL1       -0.0216
     11 C          63.7900   81.8958   12.6058 C.ar    1  UNL1       -0.0026
     12 C          63.5522   82.6454   13.8831 C.ar    1  UNL1        0.0207
     13 C          63.3015   84.1239   13.8496 C.ar    1  UNL1        0.1072
     14 C          63.2886   84.8528   12.5387 C.ar    1  UNL1        0.0726
     15 C          63.5264   84.1032   11.2613 C.ar    1  UNL1        0.0018
     16 N          63.0636   84.8735   15.1269 N.ar    1  UNL1       -0.1477
     17 N          61.7377   85.0699   15.8002 N.ar    1  UNL1       -0.1447
     18 C          61.9646   85.8760   17.0446 C.ar    1  UNL1        0.1446
     19 C          63.4307   86.1779   17.1405 C.ar    1  UNL1        0.1446
     20 N          64.1100   85.5583   15.9553 N.ar    1  UNL1       -0.1447
     21 C          62.5365   89.2884   12.4379 C.3     1  UNL1        0.0488
     22 C          63.4990   90.3867   12.0958 C.ar    1  UNL1       -0.0189
     23 C          63.4450   91.0377   10.7455 C.ar    1  UNL1       -0.0041
     24 C          64.4076   92.1361   10.4033 C.ar    1  UNL1        0.0013
     25 C          65.4243   92.5834   11.4115 C.ar    1  UNL1        0.0209
     26 C          65.4783   91.9324   12.7618 C.ar    1  UNL1        0.1026
     27 C          64.5157   90.8340   13.1039 C.ar    1  UNL1        0.0167
     28 N          66.4950   92.3797   13.7699 N.ar    1  UNL1       -0.1478
     29 N          66.2076   93.1146   15.0455 N.ar    1  UNL1       -0.1447
     30 C          67.5125   93.3597   15.7434 C.ar    1  UNL1        0.1446
     31 C          68.6065   92.7763   14.8991 C.ar    1  UNL1        0.1446
     32 N          67.9776   92.1706   13.6793 N.ar    1  UNL1       -0.1447
@<TRIPOS>BOND
     1     9    10    1
     2    10    11   ar
     3    11    12   ar
     4    12    13   ar
     5    13    16    1
     6    16    17   ar
     7    17    18   ar
     8    18    19   ar
     9    19    20   ar
    10    13    14   ar
    11    14     1    1
    12     1     2    2
    13     1     3   am
    14     3     4    1
    15     4     5    1
    16     5     6    1
    17     6     7    1
    18     7     8    1
    19     8    21    1
    20    21    22    1
    21    22    23   ar
    22    23    24   ar
    23    24    25   ar
    24    25    26   ar
    25    26    28    1
    26    28    29   ar
    27    29    30   ar
    28    30    31   ar
    29    31    32   ar
    30    26    27   ar
    31    14    15   ar
    32    15    10   ar
    33    20    16   ar
    34     8     3    1
    35    27    22   ar
    36    32    28   ar
@<TRIPOS>MOLECULE
*****
 32 36 0 0 0
SMALL
GASTEIGER

@<TRIPOS>ATOM
      1 C          62.7240   87.3797   11.6898 C.2     1  UNL1        0.2506
      2 O          63.6750   87.8117   12.7664 O.2     1  UNL1       -0.2699
      3 N          61.6183   88.2949   11.2544 N.am    1  UNL1       -0.2723
      4 C          60.6673   87.8629   10.1778 C.3     1  UNL1        0.1257
      5 C          59.5614   88.7782    9.7424 C.3     1  UNL1        0.1637
      6 O          59.4067   90.1254   10.3835 O.3     1  UNL1       -0.3502
      7 C          60.3577   90.5574   11.4601 C.3     1  UNL1        0.1622
      8 C          61.4634   89.6422   11.8955 C.3     1  UNL1        0.1096
      9 C          62.8568   84.4143    7.4250 C.3     1  UNL1        0.0310
     10 C          62.9452   84.5498    8.9162 C.ar    1  UNL1       -0.0216
     11 C          63.1885   83.3381    9.7663 C.ar    1  UNL1       -0.0026
     12 C          63.2769   83.4737   11.2576 C.ar    1  UNL1        0.0207
     13 C          63.1221   84.8208   11.8987 C.ar    1  UNL1        0.1072
     14 C          62.8789   86.0325   11.0486 C.ar    1  UNL1        0.0726
     15 C          62.7904   85.8970    9.5574 C.ar    1  UNL1        0.0018
     16 N          63.2106   84.9563   13.3900 N.ar    1  UNL1       -0.1477
     17 N          62.0771   84.7938   14.3588 N.ar    1  UNL1       -0.1447
     18 C          62.6140   85.0152   15.7419 C.ar    1  UNL1        0.1446
     19 C          64.0794   85.3146   15.6277 C.ar    1  UNL1        0.1446
     20 N          64.4481   85.2782   14.1742 N.ar    1  UNL1       -0.1447
     21 C          62.4144   90.0742   12.9721 C.3     1  UNL1        0.0488
     22 C          63.6048   90.9189   12.6266 C.ar    1  UNL1       -0.0189
     23 C          63.7822   91.4281   11.2269 C.ar    1  UNL1       -0.0041
     24 C          64.9726   92.2729   10.8814 C.ar    1  UNL1        0.0013
     25 C          65.9856   92.6084   11.9356 C.ar    1  UNL1        0.0209
     26 C          65.8081   92.0991   13.3353 C.ar    1  UNL1        0.1026
     27 C          64.6178   91.2544   13.6808 C.ar    1  UNL1        0.0167
     28 N          66.8211   92.4346   14.3895 N.ar    1  UNL1       -0.1478
     29 N          67.5758   91.4497   15.2323 N.ar    1  UNL1       -0.1447
     30 C          68.4784   92.2202   16.1497 C.ar    1  UNL1        0.1446
     31 C          68.2815   93.6815   15.8739 C.ar    1  UNL1        0.1446
     32 N          67.2572   93.8140   14.7860 N.ar    1  UNL1       -0.1447
@<TRIPOS>BOND
     1     9    10    1
     2    10    11   ar
     3    11    12   ar
     4    12    13   ar
     5    13    16    1
     6    16    17   ar
     7    17    18   ar
     8    18    19   ar
     9    19    20   ar
    10    13    14   ar
    11    14     1    1
    12     1     2    2
    13     1     3   am
    14     3     4    1
    15     4     5    1
    16     5     6    1
    17     6     7    1
    18     7     8    1
    19     8    21    1
    20    21    22    1
    21    22    23   ar
    22    23    24   ar
    23    24    25   ar
    24    25    26   ar
    25    26    28    1
    26    28    29   ar
    27    29    30   ar
    28    30    31   ar
    29    31    32   ar
    30    26    27   ar
    31    14    15   ar
    32    15    10   ar
    33    20    16   ar
    34     8     3    1
    35    27    22   ar
    36    32    28   ar
@<TRIPOS>MOLECULE
*****
 32 36 0 0 0
SMALL
GASTEIGER

@<TRIPOS>ATOM
      1 C          62.7219   87.3146   11.7761 C.2     1  UNL1        0.2506
      2 O          63.3909   87.4726   13.1094 O.2     1  UNL1       -0.2699
      3 N          61.8931   88.4322   11.2159 N.am    1  UNL1       -0.2723
      4 C          61.2240   88.2743    9.8826 C.3     1  UNL1        0.1257
      5 C          60.3952   89.3920    9.3224 C.3     1  UNL1        0.1637
      6 O          60.2353   90.6675   10.0953 O.3     1  UNL1       -0.3502
      7 C          60.9044   90.8254   11.4285 C.3     1  UNL1        0.1622
      8 C          61.7332   89.7078   11.9888 C.3     1  UNL1        0.1096
      9 C          62.8209   84.7848    7.2385 C.3     1  UNL1        0.0310
     10 C          62.9313   84.7742    8.7344 C.ar    1  UNL1       -0.0216
     11 C          63.2014   83.4880    9.4573 C.ar    1  UNL1       -0.0026
     12 C          63.3118   83.4774   10.9532 C.ar    1  UNL1        0.0207
     13 C          63.1519   84.7529   11.7262 C.ar    1  UNL1        0.1072
     14 C          62.8818   86.0390   11.0032 C.ar    1  UNL1        0.0726
     15 C          62.7714   86.0497    9.5073 C.ar    1  UNL1        0.0018
     16 N          63.2623   84.7422   13.2221 N.ar    1  UNL1       -0.1477
     17 N          62.1171   84.7110   14.1904 N.ar    1  UNL1       -0.1447
     18 C          62.6842   84.7104   15.5791 C.ar    1  UNL1        0.1446
     19 C          64.1799   84.7412   15.4690 C.ar    1  UNL1        0.1446
     20 N          64.5371   84.7609   14.0123 N.ar    1  UNL1       -0.1447
     21 C          62.4022   89.8658   13.3220 C.3     1  UNL1        0.0488
     22 C          63.7252   90.5659   13.4190 C.ar    1  UNL1       -0.0189
     23 C          64.5542   90.4339   14.6621 C.ar    1  UNL1       -0.0041
     24 C          65.8773   91.1340   14.7591 C.ar    1  UNL1        0.0013
     25 C          66.3712   91.9662   13.6130 C.ar    1  UNL1        0.0209
     26 C          65.5421   92.0983   12.3699 C.ar    1  UNL1        0.1026
     27 C          64.2192   91.3981   12.2729 C.ar    1  UNL1        0.0167
     28 N          66.0361   92.9305   11.2239 N.ar    1  UNL1       -0.1478
     29 N          67.1209   92.5493   10.2606 N.ar    1  UNL1       -0.1447
     30 C          67.2872   93.6732    9.2813 C.ar    1  UNL1        0.1446
     31 C          66.3052   94.7491    9.6393 C.ar    1  UNL1        0.1446
     32 N          65.5319   94.2901   10.8399 N.ar    1  UNL1       -0.1447
@<TRIPOS>BOND
     1     9    10    1
     2    10    11   ar
     3    11    12   ar
     4    12    13   ar
     5    13    16    1
     6    16    17   ar
     7    17    18   ar
     8    18    19   ar
     9    19    20   ar
    10    13    14   ar
    11    14     1    1
    12     1     2    2
    13     1     3   am
    14     3     4    1
    15     4     5    1
    16     5     6    1
    17     6     7    1
    18     7     8    1
    19     8    21    1
    20    21    22    1
    21    22    23   ar
    22    23    24   ar
    23    24    25   ar
    24    25    26   ar
    25    26    28    1
    26    28    29   ar
    27    29    30   ar
    28    30    31   ar
    29    31    32   ar
    30    26    27   ar
    31    14    15   ar
    32    15    10   ar
    33    20    16   ar
    34     8     3    1
    35    27    22   ar
    36    32    28   ar
@<TRIPOS>MOLECULE
*****
 32 36 0 0 0
SMALL
GASTEIGER

@<TRIPOS>ATOM
      1 C          63.3353   86.9852   13.0911 C.2     1  UNL1        0.2506
      2 O          63.8093   87.6380   14.3557 O.2     1  UNL1       -0.2699
      3 N          62.7964   87.8241   11.9704 N.am    1  UNL1       -0.2723
      4 C          62.3224   87.1714   10.7058 C.3     1  UNL1        0.1257
      5 C          61.7836   88.0103    9.5852 C.3     1  UNL1        0.1637
      6 O          61.7188   89.5020    9.7291 O.3     1  UNL1       -0.3502
      7 C          62.1928   90.1547   10.9937 C.3     1  UNL1        0.1622
      8 C          62.7316   89.3159   12.1144 C.3     1  UNL1        0.1096
      9 C          63.9669   82.7750   10.1119 C.3     1  UNL1        0.0310
     10 C          63.7159   83.3885   11.4576 C.ar    1  UNL1       -0.0216
     11 C          63.5298   82.5102   12.6592 C.ar    1  UNL1       -0.0026
     12 C          63.2788   83.1237   14.0049 C.ar    1  UNL1        0.0207
     13 C          63.2140   84.6153   14.1488 C.ar    1  UNL1        0.1072
     14 C          63.4001   85.4935   12.9472 C.ar    1  UNL1        0.0726
     15 C          63.6511   84.8801   11.6015 C.ar    1  UNL1        0.0018
     16 N          62.9630   85.2287   15.4945 N.ar    1  UNL1       -0.1477
     17 N          64.0089   85.7502   16.4347 N.ar    1  UNL1       -0.1447
     18 C          63.3144   86.2721   17.6575 C.ar    1  UNL1        0.1446
     19 C          61.8391   86.0733   17.4730 C.ar    1  UNL1        0.1446
     20 N          61.6220   85.4284   16.1362 N.ar    1  UNL1       -0.1447
     21 C          63.2056   89.9686   13.3790 C.3     1  UNL1        0.0488
     22 C          64.4848   90.7519   13.3848 C.ar    1  UNL1       -0.0189
     23 C          65.4418   90.6167   14.5318 C.ar    1  UNL1       -0.0041
     24 C          66.7211   91.4001   14.5377 C.ar    1  UNL1        0.0013
     25 C          67.0432   92.3186   13.3964 C.ar    1  UNL1        0.0209
     26 C          66.0861   92.4539   12.2493 C.ar    1  UNL1        0.1026
     27 C          64.8069   91.6705   12.2435 C.ar    1  UNL1        0.0167
     28 N          66.4082   93.3724   11.1081 N.ar    1  UNL1       -0.1478
     29 N          65.6609   94.6207   10.7430 N.ar    1  UNL1       -0.1447
     30 C          66.3250   95.2238    9.5408 C.ar    1  UNL1        0.1446
     31 C          67.4828   94.3482    9.1629 C.ar    1  UNL1        0.1446
     32 N          67.5343   93.2039   10.1314 N.ar    1  UNL1       -0.1447
@<TRIPOS>BOND
     1     9    10    1
     2    10    11   ar
     3    11    12   ar
     4    12    13   ar
     5    13    16    1
     6    16    17   ar
     7    17    18   ar
     8    18    19   ar
     9    19    20   ar
    10    13    14   ar
    11    14     1    1
    12     1     2    2
    13     1     3   am
    14     3     4    1
    15     4     5    1
    16     5     6    1
    17     6     7    1
    18     7     8    1
    19     8    21    1
    20    21    22    1
    21    22    23   ar
    22    23    24   ar
    23    24    25   ar
    24    25    26   ar
    25    26    28    1
    26    28    29   ar
    27    29    30   ar
    28    30    31   ar
    29    31    32   ar
    30    26    27   ar
    31    14    15   ar
    32    15    10   ar
    33    20    16   ar
    34     8     3    1
    35    27    22   ar
    36    32    28   ar
@<TRIPOS>MOLECULE
*****
 32 36 0 0 0
SMALL
GASTEIGER

@<TRIPOS>ATOM
      1 C          63.3775   87.9559   13.1930 C.2     1  UNL1        0.2506
      2 O          63.5937   89.0623   12.2035 O.2     1  UNL1       -0.2699
      3 N          63.3299   88.2612   14.6608 N.am    1  UNL1       -0.2723
      4 C          63.1137   87.1548   15.6504 C.3     1  UNL1        0.1257
      5 C          63.0660   87.4602   17.1183 C.3     1  UNL1        0.1637
      6 O          63.2346   88.8718   17.5965 O.3     1  UNL1       -0.3502
      7 C          63.4508   89.9782   16.6070 C.3     1  UNL1        0.1622
      8 C          63.4984   89.6729   15.1392 C.3     1  UNL1        0.1096
      9 C          64.5595   82.9092   13.5592 C.3     1  UNL1        0.0310
     10 C          63.8000   84.0209   12.8978 C.ar    1  UNL1       -0.0216
     11 C          62.8720   83.7209   11.7582 C.ar    1  UNL1       -0.0026
     12 C          62.1125   84.8325   11.0968 C.ar    1  UNL1        0.0207
     13 C          62.2810   86.2442   11.5751 C.ar    1  UNL1        0.1072
     14 C          63.2090   86.5442   12.7147 C.ar    1  UNL1        0.0726
     15 C          63.9685   85.4325   13.3761 C.ar    1  UNL1        0.0018
     16 N          61.5215   87.3559   10.9137 N.ar    1  UNL1       -0.1477
     17 N          61.8186   87.9479    9.5679 N.ar    1  UNL1       -0.1447
     18 C          60.8123   89.0286    9.3045 C.ar    1  UNL1        0.1446
     19 C          59.8932   89.1045   10.4875 C.ar    1  UNL1        0.1446
     20 N          60.3315   88.0707   11.4821 N.ar    1  UNL1       -0.1447
     21 C          63.7146   90.7793   14.1496 C.3     1  UNL1        0.0488
     22 C          65.0943   91.3214   13.9203 C.ar    1  UNL1       -0.0189
     23 C          66.1736   91.0781   14.9331 C.ar    1  UNL1       -0.0041
     24 C          67.5533   91.6202   14.7038 C.ar    1  UNL1        0.0013
     25 C          67.8537   92.4056   13.4616 C.ar    1  UNL1        0.0209
     26 C          66.7742   92.6489   12.4488 C.ar    1  UNL1        0.1026
     27 C          65.3946   92.1068   12.6781 C.ar    1  UNL1        0.0167
     28 N          67.0746   93.4343   11.2066 N.ar    1  UNL1       -0.1478
     29 N          67.7518   92.9110    9.9747 N.ar    1  UNL1       -0.1447
     30 C          67.8462   94.0342    8.9850 C.ar    1  UNL1        0.1446
     31 C          67.2273   95.2517    9.6052 C.ar    1  UNL1        0.1446
     32 N          66.7504   94.8810   10.9782 N.ar    1  UNL1       -0.1447
@<TRIPOS>BOND
     1     9    10    1
     2    10    11   ar
     3    11    12   ar
     4    12    13   ar
     5    13    16    1
     6    16    17   ar
     7    17    18   ar
     8    18    19   ar
     9    19    20   ar
    10    13    14   ar
    11    14     1    1
    12     1     2    2
    13     1     3   am
    14     3     4    1
    15     4     5    1
    16     5     6    1
    17     6     7    1
    18     7     8    1
    19     8    21    1
    20    21    22    1
    21    22    23   ar
    22    23    24   ar
    23    24    25   ar
    24    25    26   ar
    25    26    28    1
    26    28    29   ar
    27    29    30   ar
    28    30    31   ar
    29    31    32   ar
    30    26    27   ar
    31    14    15   ar
    32    15    10   ar
    33    20    16   ar
    34     8     3    1
    35    27    22   ar
    36    32    28   ar
