@<TRIPOS>MOLECULE
*****
 44 49 0 0 0
SMALL
GASTEIGER

@<TRIPOS>ATOM
      1 O          64.1730   86.7319   14.3891 O.2     1  UNL1       -0.2733
      2 C          63.4771   87.0514   13.0993 C.2     1  UNL1        0.2410
      3 N          63.2716   88.4804   12.6919 N.am    1  UNL1       -0.2966
      4 H          62.8148   88.6901   11.8454 H       1  UNL1        0.1499
      5 C          63.7620   89.5898   13.5743 C.3     1  UNL1        0.1543
      6 C          64.3312   90.8367   12.9652 C.ar    1  UNL1        0.1417
      7 N          64.2879   91.2074   11.5124 N.ar    1  UNL1       -0.2276
      8 C          64.9737   92.5317   11.3511 C.ar    1  UNL1        0.1167
      9 C          65.2330   93.3877   10.1470 C.ar    1  UNL1        0.0238
     10 C          65.9596   94.6914   10.2961 C.ar    1  UNL1        0.0223
     11 C          66.4269   95.1391   11.6493 C.ar    1  UNL1        0.1006
     12 N          66.1675   94.2832   12.8534 N.ar    1  UNL1       -0.2252
     13 C          65.4409   92.9795   12.7044 C.ar    1  UNL1        0.1626
     14 N          65.0439   91.9319   13.7019 N.ar    1  UNL1       -0.2990
     15 C          65.3124   91.9724   15.1771 C.3     1  UNL1        0.0898
     16 C          65.0712   91.9049   16.6560 C.3     1  UNL1        0.0273
     17 C          63.9382   91.6754   15.7002 C.3     1  UNL1        0.0273
     18 C          66.7797   92.2835   15.1664 C.ar    1  UNL1       -0.0037
     19 C          67.6997   91.5284   14.2535 C.ar    1  UNL1       -0.0025
     20 C          69.1671   91.8394   14.2427 C.ar    1  UNL1       -0.0003
     21 C          69.7144   92.9056   15.1449 C.ar    1  UNL1       -0.0000
     22 C          68.7943   93.6606   16.0578 C.ar    1  UNL1       -0.0003
     23 C          67.3270   93.3496   16.0686 C.ar    1  UNL1       -0.0025
     24 C          62.9867   85.9420   12.2168 C.3     1  UNL1        0.1531
     25 N          61.7229   86.1145   11.4274 N.am    1  UNL1       -0.2979
     26 C          61.6722   87.1019   10.2993 C.2     1  UNL1        0.2299
     27 O          62.8852   87.9166    9.9605 O.2     1  UNL1       -0.2748
     28 H          60.9267   85.5798   11.6498 H       1  UNL1        0.1498
     29 C          60.4084   87.2744    9.5099 C.3     1  UNL1        0.1557
     30 C          59.3087   86.9906    8.5300 C.3     1  UNL1        0.0177
     31 C          60.4419   86.0207    8.6871 C.3     1  UNL1        0.0177
     32 C          59.9359   88.5881   10.0585 C.3     1  UNL1        0.4048
     33 F          59.4634   89.9017   10.6072 F       1  UNL1       -0.1695
     34 F          60.2035   89.2378    8.7333 F       1  UNL1       -0.1695
     35 F          59.6683   87.9383   11.3837 F       1  UNL1       -0.1695
     36 C          63.7600   84.6601   12.1237 C.3     1  UNL1        0.0599
     37 C          63.1381   83.3741   12.5814 C.ar    1  UNL1        0.0348
     38 C          62.4428   83.3080   13.9089 C.ar    1  UNL1        0.1384
     39 F          62.3695   84.5279   14.7787 F       1  UNL1       -0.2044
     40 C          61.8210   82.0220   14.3666 C.ar    1  UNL1        0.0295
     41 C          61.8944   80.8022   13.4968 C.ar    1  UNL1        0.0046
     42 C          62.5897   80.8683   12.1693 C.ar    1  UNL1        0.0295
     43 C          63.2115   82.1542   11.7116 C.ar    1  UNL1        0.1384
     44 F          63.9068   82.2204   10.3841 F       1  UNL1       -0.2044
@<TRIPOS>BOND
     1     1     2    2
     2     2     3   am
     3     3     5    1
     4     5     6    1
     5     6     7   ar
     6     7     8   ar
     7     8     9   ar
     8     9    10   ar
     9    10    11   ar
    10    11    12   ar
    11    12    13   ar
    12    13    14   ar
    13    14    15    1
    14    15    18    1
    15    18    19   ar
    16    19    20   ar
    17    20    21   ar
    18    21    22   ar
    19    22    23   ar
    20    15    16    1
    21    16    17    1
    22     2    24    1
    23    24    36    1
    24    36    37    1
    25    37    38   ar
    26    38    39    1
    27    38    40   ar
    28    40    41   ar
    29    41    42   ar
    30    42    43   ar
    31    43    44    1
    32    24    25    1
    33    25    26   am
    34    26    27    2
    35    26    29    1
    36    29    32    1
    37    32    33    1
    38    32    34    1
    39    32    35    1
    40    29    30    1
    41    30    31    1
    42    14     6   ar
    43    17    15    1
    44    43    37   ar
    45    31    29    1
    46    13     8   ar
    47    23    18   ar
    48     3     4    1
    49    25    28    1
@<TRIPOS>MOLECULE
*****
 44 49 0 0 0
SMALL
GASTEIGER

@<TRIPOS>ATOM
      1 O          64.4030   89.7353   13.0706 O.2     1  UNL1       -0.2733
      2 C          63.4019   89.5593   11.9676 C.2     1  UNL1        0.2410
      3 N          63.2652   90.6084   10.9043 N.am    1  UNL1       -0.2966
      4 H          62.6081   90.4928   10.1803 H       1  UNL1        0.1499
      5 C          64.1297   91.8336   10.9440 C.3     1  UNL1        0.1543
      6 C          65.0212   92.0845   12.1239 C.ar    1  UNL1        0.1417
      7 N          64.6221   91.9893   13.5667 N.ar    1  UNL1       -0.2276
      8 C          65.8226   92.3206   14.4027 C.ar    1  UNL1        0.1167
      9 C          66.0241   92.3880   15.8875 C.ar    1  UNL1        0.0238
     10 C          67.3669   92.7552   16.4462 C.ar    1  UNL1        0.0223
     11 C          68.5081   93.0551   15.5201 C.ar    1  UNL1        0.1006
     12 N          68.3066   92.9878   14.0353 N.ar    1  UNL1       -0.2252
     13 C          66.9639   92.6205   13.4765 C.ar    1  UNL1        0.1626
     14 N          66.4686   92.4746   12.0682 N.ar    1  UNL1       -0.2990
     15 C          67.2784   92.6823   10.8228 C.3     1  UNL1        0.0898
     16 C          68.2374   92.4067    9.7028 C.3     1  UNL1        0.0273
     17 C          67.9890   91.3631   10.7511 C.3     1  UNL1        0.0273
     18 C          66.8492   94.0735   10.4619 C.ar    1  UNL1       -0.0037
     19 C          67.0683   94.5886    9.0704 C.ar    1  UNL1       -0.0025
     20 C          66.6390   95.9799    8.7094 C.ar    1  UNL1       -0.0003
     21 C          65.9907   96.8559    9.7402 C.ar    1  UNL1       -0.0000
     22 C          65.7717   96.3406   11.1318 C.ar    1  UNL1       -0.0003
     23 C          66.2009   94.9494   11.4927 C.ar    1  UNL1       -0.0025
     24 C          62.5373   88.3340   11.9278 C.3     1  UNL1        0.1531
     25 N          63.1307   86.9877   12.2198 N.am    1  UNL1       -0.2979
     26 C          63.5538   86.6415   13.6167 C.2     1  UNL1        0.2299
     27 O          63.3834   87.6416   14.7215 O.2     1  UNL1       -0.2748
     28 H          63.2425   86.3313   11.4947 H       1  UNL1        0.1498
     29 C          64.1471   85.2951   13.9087 C.3     1  UNL1        0.1557
     30 C          65.0444   84.2484   14.4996 C.3     1  UNL1        0.0177
     31 C          65.2282   85.6900   14.8707 C.3     1  UNL1        0.0177
     32 C          63.2721   84.4327   13.0481 C.3     1  UNL1        0.4048
     33 F          62.3971   83.5702   12.1877 F       1  UNL1       -0.1695
     34 F          64.4393   84.1431   12.1516 F       1  UNL1       -0.1695
     35 F          62.1050   84.7223   13.9448 F       1  UNL1       -0.1695
     36 C          61.0795   88.4552   11.5961 C.3     1  UNL1        0.0599
     37 C          60.5959   88.1341   10.2129 C.ar    1  UNL1        0.0348
     38 C          60.5899   86.7135    9.7315 C.ar    1  UNL1        0.1384
     39 F          61.0675   85.6140   10.6332 F       1  UNL1       -0.2044
     40 C          60.1062   86.3923    8.3484 C.ar    1  UNL1        0.0295
     41 C          59.6286   87.4918    7.4468 C.ar    1  UNL1        0.0046
     42 C          59.6346   88.9125    7.9283 C.ar    1  UNL1        0.0295
     43 C          60.1182   89.2336    9.3113 C.ar    1  UNL1        0.1384
     44 F          60.1243   90.6542    9.7928 F       1  UNL1       -0.2044
@<TRIPOS>BOND
     1     1     2    2
     2     2     3   am
     3     3     5    1
     4     5     6    1
     5     6     7   ar
     6     7     8   ar
     7     8     9   ar
     8     9    10   ar
     9    10    11   ar
    10    11    12   ar
    11    12    13   ar
    12    13    14   ar
    13    14    15    1
    14    15    18    1
    15    18    19   ar
    16    19    20   ar
    17    20    21   ar
    18    21    22   ar
    19    22    23   ar
    20    15    16    1
    21    16    17    1
    22     2    24    1
    23    24    36    1
    24    36    37    1
    25    37    38   ar
    26    38    39    1
    27    38    40   ar
    28    40    41   ar
    29    41    42   ar
    30    42    43   ar
    31    43    44    1
    32    24    25    1
    33    25    26   am
    34    26    27    2
    35    26    29    1
    36    29    32    1
    37    32    33    1
    38    32    34    1
    39    32    35    1
    40    29    30    1
    41    30    31    1
    42    14     6   ar
    43    17    15    1
    44    43    37   ar
    45    31    29    1
    46    13     8   ar
    47    23    18   ar
    48     3     4    1
    49    25    28    1
@<TRIPOS>MOLECULE
*****
 44 49 0 0 0
SMALL
GASTEIGER

@<TRIPOS>ATOM
      1 O          63.5820   91.7559   10.1400 O.2     1  UNL1       -0.2733
      2 C          64.1101   91.5429   11.5276 C.2     1  UNL1        0.2410
      3 N          63.5900   90.4105   12.3625 N.am    1  UNL1       -0.2966
      4 H          63.9367   90.2707   13.2732 H       1  UNL1        0.1499
      5 C          62.5418   89.4910   11.8097 C.3     1  UNL1        0.1543
      6 C          62.6725   88.0080   11.9933 C.ar    1  UNL1        0.1417
      7 N          63.6106   87.3157   12.9371 N.ar    1  UNL1       -0.2276
      8 C          63.4059   85.8368   12.7925 C.ar    1  UNL1        0.1167
      9 C          64.0514   84.6635   13.4681 C.ar    1  UNL1        0.0238
     10 C          63.6323   83.2683   13.1106 C.ar    1  UNL1        0.0223
     11 C          62.5677   83.0465   12.0774 C.ar    1  UNL1        0.1006
     12 N          61.9222   84.2199   11.4018 N.ar    1  UNL1       -0.2252
     13 C          62.3413   85.6150   11.7593 C.ar    1  UNL1        0.1626
     14 N          61.8880   86.9569   11.2654 N.ar    1  UNL1       -0.2990
     15 C          60.8351   87.2042   10.2261 C.3     1  UNL1        0.0898
     16 C          59.5883   87.7321    9.5805 C.3     1  UNL1        0.0273
     17 C          59.9110   88.0981   10.9989 C.3     1  UNL1        0.0273
     18 C          61.3935   86.3963    9.0923 C.ar    1  UNL1       -0.0037
     19 C          60.4814   85.8786    8.0199 C.ar    1  UNL1       -0.0025
     20 C          61.0397   85.0707    6.8860 C.ar    1  UNL1       -0.0003
     21 C          62.5101   84.7805    6.8247 C.ar    1  UNL1       -0.0000
     22 C          63.4222   85.2982    7.8972 C.ar    1  UNL1       -0.0003
     23 C          62.8639   86.1061    9.0310 C.ar    1  UNL1       -0.0025
     24 C          65.1585   92.4624   12.0805 C.3     1  UNL1        0.1531
     25 N          65.9750   92.0420   13.2665 N.am    1  UNL1       -0.2979
     26 C          66.6793   93.0743   14.0962 C.2     1  UNL1        0.2299
     27 O          66.5671   94.5270   13.7398 O.2     1  UNL1       -0.2748
     28 H          66.0486   91.0885   13.5003 H       1  UNL1        0.1498
     29 C          67.4957   92.6538   15.2822 C.3     1  UNL1        0.1557
     30 C          67.8395   92.2540   16.6864 C.3     1  UNL1        0.0177
     31 C          66.4185   92.5672   16.3224 C.3     1  UNL1        0.0177
     32 C          68.8565   92.5944   14.6538 C.3     1  UNL1        0.4048
     33 F          70.2172   92.5350   14.0255 F       1  UNL1       -0.1695
     34 F          69.3134   93.7172   15.5374 F       1  UNL1       -0.1695
     35 F          68.3994   91.4717   13.7704 F       1  UNL1       -0.1695
     36 C          65.3904   93.8023   11.4473 C.3     1  UNL1        0.0599
     37 C          66.3354   93.9313   10.2896 C.ar    1  UNL1        0.0348
     38 C          66.2412   95.1148    9.3728 C.ar    1  UNL1        0.1384
     39 F          65.2019   96.1693    9.6138 F       1  UNL1       -0.2044
     40 C          67.1862   95.2439    8.2151 C.ar    1  UNL1        0.0295
     41 C          68.2254   94.1894    7.9742 C.ar    1  UNL1        0.0046
     42 C          68.3196   93.0059    8.8909 C.ar    1  UNL1        0.0295
     43 C          67.3746   92.8769   10.0486 C.ar    1  UNL1        0.1384
     44 F          67.4689   91.6934   10.9654 F       1  UNL1       -0.2044
@<TRIPOS>BOND
     1     1     2    2
     2     2     3   am
     3     3     5    1
     4     5     6    1
     5     6     7   ar
     6     7     8   ar
     7     8     9   ar
     8     9    10   ar
     9    10    11   ar
    10    11    12   ar
    11    12    13   ar
    12    13    14   ar
    13    14    15    1
    14    15    18    1
    15    18    19   ar
    16    19    20   ar
    17    20    21   ar
    18    21    22   ar
    19    22    23   ar
    20    15    16    1
    21    16    17    1
    22     2    24    1
    23    24    36    1
    24    36    37    1
    25    37    38   ar
    26    38    39    1
    27    38    40   ar
    28    40    41   ar
    29    41    42   ar
    30    42    43   ar
    31    43    44    1
    32    24    25    1
    33    25    26   am
    34    26    27    2
    35    26    29    1
    36    29    32    1
    37    32    33    1
    38    32    34    1
    39    32    35    1
    40    29    30    1
    41    30    31    1
    42    14     6   ar
    43    17    15    1
    44    43    37   ar
    45    31    29    1
    46    13     8   ar
    47    23    18   ar
    48     3     4    1
    49    25    28    1
@<TRIPOS>MOLECULE
*****
 44 49 0 0 0
SMALL
GASTEIGER

@<TRIPOS>ATOM
      1 O          62.7479   90.2113   13.1398 O.2     1  UNL1       -0.2733
      2 C          62.9666   89.5436   11.8146 C.2     1  UNL1        0.2410
      3 N          63.6700   90.2779   10.7118 N.am    1  UNL1       -0.2966
      4 H          63.8135   89.8397    9.8420 H       1  UNL1        0.1499
      5 C          64.1546   91.6799   10.9342 C.3     1  UNL1        0.1543
      6 C          65.0555   91.9869   12.0936 C.ar    1  UNL1        0.1417
      7 N          64.6911   91.8836   13.5449 N.ar    1  UNL1       -0.2276
      8 C          65.8894   92.2840   14.3535 C.ar    1  UNL1        0.1167
      9 C          66.1171   92.3745   15.8333 C.ar    1  UNL1        0.0238
     10 C          67.4498   92.8158   16.3615 C.ar    1  UNL1        0.0223
     11 C          68.5549   93.1666   15.4098 C.ar    1  UNL1        0.1006
     12 N          68.3272   93.0762   13.9299 N.ar    1  UNL1       -0.2252
     13 C          66.9945   92.6348   13.4018 C.ar    1  UNL1        0.1626
     14 N          66.4791   92.4512   12.0051 N.ar    1  UNL1       -0.2990
     15 C          67.2518   92.6900   10.7418 C.3     1  UNL1        0.0898
     16 C          68.1850   92.4466    9.5930 C.3     1  UNL1        0.0273
     17 C          67.9827   91.3846   10.6327 C.3     1  UNL1        0.0273
     18 C          66.7892   94.0783   10.4120 C.ar    1  UNL1       -0.0037
     19 C          66.9292   94.6030    9.0138 C.ar    1  UNL1       -0.0025
     20 C          66.4666   95.9914    8.6840 C.ar    1  UNL1       -0.0003
     21 C          65.8642   96.8548    9.7524 C.ar    1  UNL1       -0.0000
     22 C          65.7242   96.3299   11.1507 C.ar    1  UNL1       -0.0003
     23 C          66.1868   94.9417   11.4805 C.ar    1  UNL1       -0.0025
     24 C          62.4820   88.1416   11.5920 C.3     1  UNL1        0.1531
     25 N          62.2701   87.6339   10.1965 N.am    1  UNL1       -0.2979
     26 C          60.8874   87.2951    9.7236 C.2     1  UNL1        0.2299
     27 O          59.7168   87.4640   10.6461 O.2     1  UNL1       -0.2748
     28 H          63.0384   87.5231    9.5911 H       1  UNL1        0.1498
     29 C          60.6755   86.7874    8.3281 C.3     1  UNL1        0.1557
     30 C          60.8476   85.9632    7.0868 C.3     1  UNL1        0.0177
     31 C          61.7075   85.6997    8.2871 C.3     1  UNL1        0.0177
     32 C          59.5699   87.6989    7.8844 C.3     1  UNL1        0.4048
     33 F          58.4643   88.6104    7.4408 F       1  UNL1       -0.1695
     34 F          58.6706   86.5140    7.6912 F       1  UNL1       -0.1695
     35 F          60.4692   88.8837    8.0777 F       1  UNL1       -0.1695
     36 C          62.2093   87.2472   12.7650 C.3     1  UNL1        0.0599
     37 C          63.1521   86.1263   13.0886 C.ar    1  UNL1        0.0348
     38 C          63.0542   84.8262   12.3468 C.ar    1  UNL1        0.1384
     39 F          62.0135   84.6471   11.2814 F       1  UNL1       -0.2044
     40 C          63.9969   83.7053   12.6704 C.ar    1  UNL1        0.0295
     41 C          65.0375   83.8844   13.7358 C.ar    1  UNL1        0.0046
     42 C          65.1354   85.1845   14.4776 C.ar    1  UNL1        0.0295
     43 C          64.1927   86.3054   14.1540 C.ar    1  UNL1        0.1384
     44 F          64.2905   87.6055   14.8957 F       1  UNL1       -0.2044
@<TRIPOS>BOND
     1     1     2    2
     2     2     3   am
     3     3     5    1
     4     5     6    1
     5     6     7   ar
     6     7     8   ar
     7     8     9   ar
     8     9    10   ar
     9    10    11   ar
    10    11    12   ar
    11    12    13   ar
    12    13    14   ar
    13    14    15    1
    14    15    18    1
    15    18    19   ar
    16    19    20   ar
    17    20    21   ar
    18    21    22   ar
    19    22    23   ar
    20    15    16    1
    21    16    17    1
    22     2    24    1
    23    24    36    1
    24    36    37    1
    25    37    38   ar
    26    38    39    1
    27    38    40   ar
    28    40    41   ar
    29    41    42   ar
    30    42    43   ar
    31    43    44    1
    32    24    25    1
    33    25    26   am
    34    26    27    2
    35    26    29    1
    36    29    32    1
    37    32    33    1
    38    32    34    1
    39    32    35    1
    40    29    30    1
    41    30    31    1
    42    14     6   ar
    43    17    15    1
    44    43    37   ar
    45    31    29    1
    46    13     8   ar
    47    23    18   ar
    48     3     4    1
    49    25    28    1
@<TRIPOS>MOLECULE
*****
 44 49 0 0 0
SMALL
GASTEIGER

@<TRIPOS>ATOM
      1 O          63.7585   87.0250   15.4133 O.2     1  UNL1       -0.2733
      2 C          63.7899   86.9390   13.9162 C.2     1  UNL1        0.2410
      3 N          63.7299   88.1906   13.0916 N.am    1  UNL1       -0.2966
      4 H          63.7506   88.1342   12.1089 H       1  UNL1        0.1499
      5 C          63.6385   89.5282   13.7642 C.3     1  UNL1        0.1543
      6 C          64.2204   90.7420   13.1022 C.ar    1  UNL1        0.1417
      7 N          64.1654   91.0588   11.6371 N.ar    1  UNL1       -0.2276
      8 C          64.8704   92.3646   11.4184 C.ar    1  UNL1        0.1167
      9 C          65.1289   93.1706   10.1800 C.ar    1  UNL1        0.0238
     10 C          65.8781   94.4668   10.2717 C.ar    1  UNL1        0.0223
     11 C          66.3688   94.9571   11.6017 C.ar    1  UNL1        0.1006
     12 N          66.1103   94.1511   12.8400 N.ar    1  UNL1       -0.2252
     13 C          65.3611   92.8549   12.7484 C.ar    1  UNL1        0.1626
     14 N          64.9594   91.8520   13.7890 N.ar    1  UNL1       -0.2990
     15 C          65.2463   91.9432   15.2585 C.3     1  UNL1        0.0898
     16 C          65.0234   91.9276   16.7417 C.3     1  UNL1        0.0273
     17 C          63.8782   91.6674   15.8086 C.3     1  UNL1        0.0273
     18 C          66.7139   92.2506   15.2188 C.ar    1  UNL1       -0.0037
     19 C          67.6180   91.4759   14.3065 C.ar    1  UNL1       -0.0025
     20 C          69.0856   91.7833   14.2667 C.ar    1  UNL1       -0.0003
     21 C          69.6490   92.8656   15.1393 C.ar    1  UNL1       -0.0000
     22 C          68.7448   93.6403   16.0516 C.ar    1  UNL1       -0.0003
     23 C          67.2773   93.3329   16.0914 C.ar    1  UNL1       -0.0025
     24 C          63.8813   85.6014   13.2435 C.3     1  UNL1        0.1531
     25 N          63.7324   85.4990   11.7544 N.am    1  UNL1       -0.2979
     26 C          62.4344   85.8743   11.1029 C.2     1  UNL1        0.2299
     27 O          61.2853   86.3518   11.9404 O.2     1  UNL1       -0.2748
     28 H          64.4866   85.1856   11.2047 H       1  UNL1        0.1498
     29 C          62.2855   85.7719    9.6138 C.3     1  UNL1        0.1557
     30 C          62.4546   85.2661    8.2118 C.3     1  UNL1        0.0177
     31 C          63.1493   84.5748    9.3473 C.3     1  UNL1        0.0177
     32 C          61.3701   86.9334    9.3631 C.3     1  UNL1        0.4048
     33 F          60.4546   88.0949    9.1123 F       1  UNL1       -0.1695
     34 F          62.4875   87.8825    9.6803 F       1  UNL1       -0.1695
     35 F          60.2528   85.9842    9.0458 F       1  UNL1       -0.1695
     36 C          64.1216   84.3662   14.0598 C.3     1  UNL1        0.0599
     37 C          63.3962   83.0956   13.7289 C.ar    1  UNL1        0.0348
     38 C          63.8076   82.2863   12.5348 C.ar    1  UNL1        0.1384
     39 F          64.9443   82.7477   11.6716 F       1  UNL1       -0.2044
     40 C          63.0823   81.0158   12.2039 C.ar    1  UNL1        0.0295
     41 C          61.9456   80.5545   13.0671 C.ar    1  UNL1        0.0046
     42 C          61.5342   81.3637   14.2612 C.ar    1  UNL1        0.0295
     43 C          62.2595   82.6343   14.5921 C.ar    1  UNL1        0.1384
     44 F          61.8481   83.4436   15.7862 F       1  UNL1       -0.2044
@<TRIPOS>BOND
     1     1     2    2
     2     2     3   am
     3     3     5    1
     4     5     6    1
     5     6     7   ar
     6     7     8   ar
     7     8     9   ar
     8     9    10   ar
     9    10    11   ar
    10    11    12   ar
    11    12    13   ar
    12    13    14   ar
    13    14    15    1
    14    15    18    1
    15    18    19   ar
    16    19    20   ar
    17    20    21   ar
    18    21    22   ar
    19    22    23   ar
    20    15    16    1
    21    16    17    1
    22     2    24    1
    23    24    36    1
    24    36    37    1
    25    37    38   ar
    26    38    39    1
    27    38    40   ar
    28    40    41   ar
    29    41    42   ar
    30    42    43   ar
    31    43    44    1
    32    24    25    1
    33    25    26   am
    34    26    27    2
    35    26    29    1
    36    29    32    1
    37    32    33    1
    38    32    34    1
    39    32    35    1
    40    29    30    1
    41    30    31    1
    42    14     6   ar
    43    17    15    1
    44    43    37   ar
    45    31    29    1
    46    13     8   ar
    47    23    18   ar
    48     3     4    1
    49    25    28    1
@<TRIPOS>MOLECULE
*****
 44 49 0 0 0
SMALL
GASTEIGER

@<TRIPOS>ATOM
      1 O          62.4286   90.3326   12.9926 O.2     1  UNL1       -0.2733
      2 C          62.7452   89.6285   11.7066 C.2     1  UNL1        0.2410
      3 N          63.5857   90.3082   10.6666 N.am    1  UNL1       -0.2966
      4 H          63.7935   89.8460    9.8225 H       1  UNL1        0.1499
      5 C          64.1097   91.6919   10.9127 C.3     1  UNL1        0.1543
      6 C          65.0357   91.9495   12.0643 C.ar    1  UNL1        0.1417
      7 N          64.6910   91.8214   13.5185 N.ar    1  UNL1       -0.2276
      8 C          65.9111   92.1731   14.3169 C.ar    1  UNL1        0.1167
      9 C          66.1636   92.2234   15.7946 C.ar    1  UNL1        0.0238
     10 C          67.5149   92.6193   16.3116 C.ar    1  UNL1        0.0223
     11 C          68.6137   92.9649   15.3508 C.ar    1  UNL1        0.1006
     12 N          68.3613   92.9146   13.8731 N.ar    1  UNL1       -0.2252
     13 C          67.0100   92.5187   13.3561 C.ar    1  UNL1        0.1626
     14 N          66.4689   92.3805   11.9640 N.ar    1  UNL1       -0.2990
     15 C          67.2278   92.6296   10.6943 C.3     1  UNL1        0.0898
     16 C          68.1358   92.3895    9.5247 C.3     1  UNL1        0.0273
     17 C          67.9204   91.3078   10.5412 C.3     1  UNL1        0.0273
     18 C          66.7989   94.0378   10.4064 C.ar    1  UNL1       -0.0037
     19 C          66.9893   94.6141    9.0348 C.ar    1  UNL1       -0.0025
     20 C          66.5604   96.0224    8.7468 C.ar    1  UNL1       -0.0003
     21 C          65.9411   96.8542    9.8306 C.ar    1  UNL1       -0.0000
     22 C          65.7507   96.2778   11.2023 C.ar    1  UNL1       -0.0003
     23 C          66.1796   94.8696   11.4902 C.ar    1  UNL1       -0.0025
     24 C          62.2212   88.2447   11.4605 C.3     1  UNL1        0.1531
     25 N          63.1461   87.0667   11.5440 N.am    1  UNL1       -0.2979
     26 C          62.6904   85.8009   12.2076 C.2     1  UNL1        0.2299
     27 O          61.3099   85.7133   12.7877 O.2     1  UNL1       -0.2748
     28 H          64.0521   87.1242   11.1632 H       1  UNL1        0.1498
     29 C          63.6152   84.6230   12.2912 C.3     1  UNL1        0.1557
     30 C          64.4226   83.4320   11.8673 C.3     1  UNL1        0.0177
     31 C          63.5983   84.1764   10.8593 C.3     1  UNL1        0.0177
     32 C          63.9534   84.6603   13.7521 C.3     1  UNL1        0.4048
     33 F          64.2916   84.6978   15.2130 F       1  UNL1       -0.1695
     34 F          63.7134   83.1826   13.8454 F       1  UNL1       -0.1695
     35 F          64.1933   86.1380   13.6586 F       1  UNL1       -0.1695
     36 C          60.7725   88.0389   11.1308 C.3     1  UNL1        0.0599
     37 C          60.3383   87.9209    9.6998 C.ar    1  UNL1        0.0348
     38 C          59.8913   89.1399    8.9487 C.ar    1  UNL1        0.1384
     39 F          59.8786   90.4770    9.6286 F       1  UNL1       -0.2044
     40 C          59.4572   89.0220    7.5178 C.ar    1  UNL1        0.0295
     41 C          59.4699   87.6849    6.8380 C.ar    1  UNL1        0.0046
     42 C          59.9169   86.4659    7.5891 C.ar    1  UNL1        0.0295
     43 C          60.3510   86.5838    9.0200 C.ar    1  UNL1        0.1384
     44 F          60.7980   85.3648    9.7711 F       1  UNL1       -0.2044
@<TRIPOS>BOND
     1     1     2    2
     2     2     3   am
     3     3     5    1
     4     5     6    1
     5     6     7   ar
     6     7     8   ar
     7     8     9   ar
     8     9    10   ar
     9    10    11   ar
    10    11    12   ar
    11    12    13   ar
    12    13    14   ar
    13    14    15    1
    14    15    18    1
    15    18    19   ar
    16    19    20   ar
    17    20    21   ar
    18    21    22   ar
    19    22    23   ar
    20    15    16    1
    21    16    17    1
    22     2    24    1
    23    24    36    1
    24    36    37    1
    25    37    38   ar
    26    38    39    1
    27    38    40   ar
    28    40    41   ar
    29    41    42   ar
    30    42    43   ar
    31    43    44    1
    32    24    25    1
    33    25    26   am
    34    26    27    2
    35    26    29    1
    36    29    32    1
    37    32    33    1
    38    32    34    1
    39    32    35    1
    40    29    30    1
    41    30    31    1
    42    14     6   ar
    43    17    15    1
    44    43    37   ar
    45    31    29    1
    46    13     8   ar
    47    23    18   ar
    48     3     4    1
    49    25    28    1
@<TRIPOS>MOLECULE
*****
 44 49 0 0 0
SMALL
GASTEIGER

@<TRIPOS>ATOM
      1 O          63.7707   91.5780   10.6095 O.2     1  UNL1       -0.2733
      2 C          64.1840   91.1948   11.9996 C.2     1  UNL1        0.2410
      3 N          63.6090   89.9670   12.6414 N.am    1  UNL1       -0.2966
      4 H          63.8803   89.7154   13.5537 H       1  UNL1        0.1499
      5 C          62.6207   89.1224   11.8931 C.3     1  UNL1        0.1543
      6 C          62.6896   87.6269   11.9867 C.ar    1  UNL1        0.1417
      7 N          63.5744   86.8409   12.9082 N.ar    1  UNL1       -0.2276
      8 C          63.3174   85.3831   12.6662 C.ar    1  UNL1        0.1167
      9 C          63.8989   84.1455   13.2828 C.ar    1  UNL1        0.0238
     10 C          63.4366   82.7929   12.8282 C.ar    1  UNL1        0.0223
     11 C          62.3929   82.6778   11.7570 C.ar    1  UNL1        0.1006
     12 N          61.8114   83.9154   11.1404 N.ar    1  UNL1       -0.2252
     13 C          62.2737   85.2680   11.5950 C.ar    1  UNL1        0.1626
     14 N          61.8857   86.6548   11.1750 N.ar    1  UNL1       -0.2990
     15 C          60.8718   87.0075   10.1274 C.3     1  UNL1        0.0898
     16 C          59.6691   87.6307    9.4830 C.3     1  UNL1        0.0273
     17 C          59.9762   87.9089   10.9246 C.3     1  UNL1        0.0273
     18 C          61.4151   86.2286    8.9663 C.ar    1  UNL1       -0.0037
     19 C          62.8815   85.9227    8.8890 C.ar    1  UNL1       -0.0025
     20 C          63.4250   85.1437    7.7279 C.ar    1  UNL1       -0.0003
     21 C          62.5019   84.6708    6.6443 C.ar    1  UNL1       -0.0000
     22 C          61.0354   84.9767    6.7217 C.ar    1  UNL1       -0.0003
     23 C          60.4920   85.7556    7.8827 C.ar    1  UNL1       -0.0025
     24 C          65.1724   92.0394   12.7479 C.3     1  UNL1        0.1531
     25 N          65.5259   93.4063   12.2416 N.am    1  UNL1       -0.2979
     26 C          66.3509   93.5551   10.9976 C.2     1  UNL1        0.2299
     27 O          66.8223   92.3370   10.2601 O.2     1  UNL1       -0.2748
     28 H          65.2165   94.2058   12.7256 H       1  UNL1        0.1498
     29 C          66.7045   94.9221   10.4913 C.3     1  UNL1        0.1557
     30 C          66.8561   96.4138   10.4487 C.3     1  UNL1        0.0177
     31 C          66.2461   95.7560   11.6508 C.3     1  UNL1        0.0177
     32 C          67.2856   94.5630    9.1559 C.3     1  UNL1        0.4048
     33 F          67.8666   94.2039    7.8204 F       1  UNL1       -0.1695
     34 F          68.5580   94.1345    9.8248 F       1  UNL1       -0.1695
     35 F          66.0132   94.9915    8.4870 F       1  UNL1       -0.1695
     36 C          65.8071   91.5170   14.0026 C.3     1  UNL1        0.0599
     37 C          67.0526   92.1600   14.5369 C.ar    1  UNL1        0.0348
     38 C          68.3420   92.0411   13.7798 C.ar    1  UNL1        0.1384
     39 F          68.3860   91.2792   12.4884 F       1  UNL1       -0.2044
     40 C          69.5874   92.6840   14.3141 C.ar    1  UNL1        0.0295
     41 C          69.5434   93.4459   15.6054 C.ar    1  UNL1        0.0046
     42 C          68.2539   93.5648   16.3625 C.ar    1  UNL1        0.0295
     43 C          67.0085   92.9218   15.8282 C.ar    1  UNL1        0.1384
     44 F          65.7191   93.0407   16.5853 F       1  UNL1       -0.2044
@<TRIPOS>BOND
     1     1     2    2
     2     2     3   am
     3     3     5    1
     4     5     6    1
     5     6     7   ar
     6     7     8   ar
     7     8     9   ar
     8     9    10   ar
     9    10    11   ar
    10    11    12   ar
    11    12    13   ar
    12    13    14   ar
    13    14    15    1
    14    15    18    1
    15    18    19   ar
    16    19    20   ar
    17    20    21   ar
    18    21    22   ar
    19    22    23   ar
    20    15    16    1
    21    16    17    1
    22     2    24    1
    23    24    36    1
    24    36    37    1
    25    37    38   ar
    26    38    39    1
    27    38    40   ar
    28    40    41   ar
    29    41    42   ar
    30    42    43   ar
    31    43    44    1
    32    24    25    1
    33    25    26   am
    34    26    27    2
    35    26    29    1
    36    29    32    1
    37    32    33    1
    38    32    34    1
    39    32    35    1
    40    29    30    1
    41    30    31    1
    42    14     6   ar
    43    17    15    1
    44    43    37   ar
    45    31    29    1
    46    13     8   ar
    47    23    18   ar
    48     3     4    1
    49    25    28    1
@<TRIPOS>MOLECULE
*****
 44 49 0 0 0
SMALL
GASTEIGER

@<TRIPOS>ATOM
      1 O          61.6494   88.7602   12.2892 O.2     1  UNL1       -0.2733
      2 C          62.7160   87.7604   12.6249 C.2     1  UNL1        0.2410
      3 N          63.8079   88.1232   13.5872 N.am    1  UNL1       -0.2966
      4 H          64.5080   87.4669   13.8076 H       1  UNL1        0.1499
      5 C          63.8334   89.4858   14.2138 C.3     1  UNL1        0.1543
      6 C          64.3476   90.6600   13.4348 C.ar    1  UNL1        0.1417
      7 N          64.2234   90.8578   11.9531 N.ar    1  UNL1       -0.2276
      8 C          64.8753   92.1626   11.6033 C.ar    1  UNL1        0.1167
      9 C          65.0571   92.8751   10.2959 C.ar    1  UNL1        0.0238
     10 C          65.7660   94.1964   10.2541 C.ar    1  UNL1        0.0223
     11 C          66.2931   94.8050   11.5197 C.ar    1  UNL1        0.1006
     12 N          66.1114   94.0925   12.8270 N.ar    1  UNL1       -0.2252
     13 C          65.4025   92.7713   12.8688 C.ar    1  UNL1        0.1626
     14 N          65.0763   91.8426   14.0007 N.ar    1  UNL1       -0.2990
     15 C          65.4188   92.0587   15.4451 C.3     1  UNL1        0.0898
     16 C          65.2525   92.1707   16.9316 C.3     1  UNL1        0.0273
     17 C          64.0729   91.8341   16.0684 C.3     1  UNL1        0.0273
     18 C          66.8835   92.3584   15.3235 C.ar    1  UNL1       -0.0037
     19 C          67.7309   91.5798   14.3613 C.ar    1  UNL1       -0.0025
     20 C          69.1957   91.8795   14.2397 C.ar    1  UNL1       -0.0003
     21 C          69.8129   92.9576   15.0803 C.ar    1  UNL1       -0.0000
     22 C          68.9654   93.7362   16.0425 C.ar    1  UNL1       -0.0003
     23 C          67.5007   93.4365   16.1641 C.ar    1  UNL1       -0.0025
     24 C          62.6906   86.3977   11.9984 C.3     1  UNL1        0.1531
     25 N          61.7092   86.0928   10.9057 N.am    1  UNL1       -0.2979
     26 C          61.7104   86.9091    9.6472 C.2     1  UNL1        0.2299
     27 O          62.6930   88.0302    9.4814 O.2     1  UNL1       -0.2748
     28 H          61.0642   85.3570   11.0146 H       1  UNL1        0.1498
     29 C          60.7290   86.6041    8.5546 C.3     1  UNL1        0.1557
     30 C          59.4755   86.6520    7.7321 C.3     1  UNL1        0.0177
     31 C          59.6048   87.5139    8.9529 C.3     1  UNL1        0.0177
     32 C          61.5123   85.5885    7.7768 C.3     1  UNL1        0.4048
     33 F          62.2956   84.5729    6.9991 F       1  UNL1       -0.1695
     34 F          60.2586   85.1604    7.0733 F       1  UNL1       -0.1695
     35 F          62.7659   86.0167    8.4804 F       1  UNL1       -0.1695
     36 C          63.6466   85.3400   12.4644 C.3     1  UNL1        0.0599
     37 C          63.1849   83.9194   12.6014 C.ar    1  UNL1        0.0348
     38 C          63.3198   82.9722   11.4461 C.ar    1  UNL1        0.1384
     39 F          63.9163   83.4458   10.1538 F       1  UNL1       -0.2044
     40 C          62.8581   81.5517   11.5830 C.ar    1  UNL1        0.0295
     41 C          62.2615   81.0782   12.8753 C.ar    1  UNL1        0.0046
     42 C          62.1267   82.0254   14.0306 C.ar    1  UNL1        0.0295
     43 C          62.5884   83.4459   13.8937 C.ar    1  UNL1        0.1384
     44 F          62.4535   84.3930   15.0490 F       1  UNL1       -0.2044
@<TRIPOS>BOND
     1     1     2    2
     2     2     3   am
     3     3     5    1
     4     5     6    1
     5     6     7   ar
     6     7     8   ar
     7     8     9   ar
     8     9    10   ar
     9    10    11   ar
    10    11    12   ar
    11    12    13   ar
    12    13    14   ar
    13    14    15    1
    14    15    18    1
    15    18    19   ar
    16    19    20   ar
    17    20    21   ar
    18    21    22   ar
    19    22    23   ar
    20    15    16    1
    21    16    17    1
    22     2    24    1
    23    24    36    1
    24    36    37    1
    25    37    38   ar
    26    38    39    1
    27    38    40   ar
    28    40    41   ar
    29    41    42   ar
    30    42    43   ar
    31    43    44    1
    32    24    25    1
    33    25    26   am
    34    26    27    2
    35    26    29    1
    36    29    32    1
    37    32    33    1
    38    32    34    1
    39    32    35    1
    40    29    30    1
    41    30    31    1
    42    14     6   ar
    43    17    15    1
    44    43    37   ar
    45    31    29    1
    46    13     8   ar
    47    23    18   ar
    48     3     4    1
    49    25    28    1
@<TRIPOS>MOLECULE
*****
 44 49 0 0 0
SMALL
GASTEIGER

@<TRIPOS>ATOM
      1 O          61.2579   89.0231   12.3007 O.2     1  UNL1       -0.2733
      2 C          62.4113   88.0758   12.1516 C.2     1  UNL1        0.2410
      3 N          63.7156   88.3692   12.8319 N.am    1  UNL1       -0.2966
      4 H          64.4726   87.7474   12.7340 H       1  UNL1        0.1499
      5 C          63.8664   89.6098   13.6614 C.3     1  UNL1        0.1543
      6 C          64.3980   90.8674   13.0401 C.ar    1  UNL1        0.1417
      7 N          64.3248   91.2321   11.5870 N.ar    1  UNL1       -0.2276
      8 C          64.9776   92.5711   11.4117 C.ar    1  UNL1        0.1167
      9 C          65.1996   93.4287   10.2013 C.ar    1  UNL1        0.0238
     10 C          65.8983   94.7493   10.3357 C.ar    1  UNL1        0.0223
     11 C          66.3749   95.2122   11.6805 C.ar    1  UNL1        0.1006
     12 N          66.1529   94.3546   12.8909 N.ar    1  UNL1       -0.2252
     13 C          65.4543   93.0340   12.7565 C.ar    1  UNL1        0.1626
     14 N          65.0960   91.9810   13.7629 N.ar    1  UNL1       -0.2990
     15 C          65.3851   92.0327   15.2339 C.3     1  UNL1        0.0898
     16 C          65.1638   91.9804   16.7166 C.3     1  UNL1        0.0273
     17 C          64.0160   91.7513   15.7785 C.3     1  UNL1        0.0273
     18 C          66.8545   92.3321   15.2003 C.ar    1  UNL1       -0.0037
     19 C          67.4216   93.4050   16.0818 C.ar    1  UNL1       -0.0025
     20 C          68.8911   93.7044   16.0482 C.ar    1  UNL1       -0.0003
     21 C          69.7933   92.9308   15.1330 C.ar    1  UNL1       -0.0000
     22 C          69.2261   91.8579   14.2515 C.ar    1  UNL1       -0.0003
     23 C          67.7567   91.5585   14.2851 C.ar    1  UNL1       -0.0025
     24 C          62.2605   86.8352   11.3220 C.3     1  UNL1        0.1531
     25 N          61.9784   85.5195   11.9849 N.am    1  UNL1       -0.2979
     26 C          62.9673   84.9399   12.9526 C.2     1  UNL1        0.2299
     27 O          64.2382   85.6760   13.2573 O.2     1  UNL1       -0.2748
     28 H          61.1442   85.0364   11.7849 H       1  UNL1        0.1498
     29 C          62.6851   83.6242   13.6155 C.3     1  UNL1        0.1557
     30 C          62.3063   82.6323   14.6750 C.3     1  UNL1        0.0177
     31 C          62.3087   84.0993   14.9876 C.3     1  UNL1        0.0177
     32 C          62.9636   82.6922   12.4736 C.3     1  UNL1        0.4048
     33 F          63.2421   81.7603   11.3318 F       1  UNL1       -0.1695
     34 F          61.6320   82.0349   12.6854 F       1  UNL1       -0.1695
     35 F          64.2951   83.3496   12.2619 F       1  UNL1       -0.1695
     36 C          62.3918   86.9102    9.8297 C.3     1  UNL1        0.0599
     37 C          61.2342   87.3763    8.9974 C.ar    1  UNL1        0.0348
     38 C          60.9219   88.8402    8.8999 C.ar    1  UNL1        0.1384
     39 F          61.7673   89.8380    9.6346 F       1  UNL1       -0.2044
     40 C          59.7643   89.3063    8.0676 C.ar    1  UNL1        0.0295
     41 C          58.9190   88.3085    7.3329 C.ar    1  UNL1        0.0046
     42 C          59.2313   86.8446    7.4304 C.ar    1  UNL1        0.0295
     43 C          60.3889   86.3785    8.2627 C.ar    1  UNL1        0.1384
     44 F          60.7012   84.9146    8.3602 F       1  UNL1       -0.2044
@<TRIPOS>BOND
     1     1     2    2
     2     2     3   am
     3     3     5    1
     4     5     6    1
     5     6     7   ar
     6     7     8   ar
     7     8     9   ar
     8     9    10   ar
     9    10    11   ar
    10    11    12   ar
    11    12    13   ar
    12    13    14   ar
    13    14    15    1
    14    15    18    1
    15    18    19   ar
    16    19    20   ar
    17    20    21   ar
    18    21    22   ar
    19    22    23   ar
    20    15    16    1
    21    16    17    1
    22     2    24    1
    23    24    36    1
    24    36    37    1
    25    37    38   ar
    26    38    39    1
    27    38    40   ar
    28    40    41   ar
    29    41    42   ar
    30    42    43   ar
    31    43    44    1
    32    24    25    1
    33    25    26   am
    34    26    27    2
    35    26    29    1
    36    29    32    1
    37    32    33    1
    38    32    34    1
    39    32    35    1
    40    29    30    1
    41    30    31    1
    42    14     6   ar
    43    17    15    1
    44    43    37   ar
    45    31    29    1
    46    13     8   ar
    47    23    18   ar
    48     3     4    1
    49    25    28    1
