@<TRIPOS>MOLECULE
*****
 29 31 0 0 0
SMALL
GASTEIGER

@<TRIPOS>ATOM
      1 N          63.9771   91.0209   14.2705 N.am    1  UNL1       -0.2683
      2 C          63.4653   90.9681   12.8615 C.2     1  UNL1        0.3102
      3 O          64.3355   91.4286   11.7297 O.2     1  UNL1       -0.2521
      4 N          62.0834   90.4549   12.5842 N.am    1  UNL1       -0.2387
      5 C          61.5716   90.4021   11.1752 C.2     1  UNL1        0.2407
      6 O          62.4417   90.8626   10.0435 O.2     1  UNL1       -0.2737
      7 H          63.4060   90.7187   15.0133 H       1  UNL1        0.1564
      8 H          61.5123   90.1527   13.3270 H       1  UNL1        0.1591
      9 C          68.8884   91.7706   12.7484 C.3     1  UNL1        0.0311
     10 C          67.8147   91.9089   13.7866 C.ar    1  UNL1       -0.0206
     11 C          68.1229   92.5605   15.1021 C.ar    1  UNL1       -0.0045
     12 C          67.0492   92.6988   16.1404 C.ar    1  UNL1       -0.0034
     13 C          65.6673   92.1856   15.8632 C.ar    1  UNL1       -0.0084
     14 C          64.5936   92.3240   16.9015 C.3     1  UNL1        0.0323
     15 C          65.3591   91.5341   14.5477 C.ar    1  UNL1        0.0472
     16 C          66.4328   91.3957   13.5095 C.ar    1  UNL1        0.0101
     17 C          60.1897   89.8889   10.8979 C.3     1  UNL1        0.1488
     18 S          59.8462   88.4599   11.1978 S.3     1  UNL1       -0.0840
     19 C          60.7633   87.3590   10.7539 C.ar    1  UNL1        0.1206
     20 N          61.4896   86.5315   11.7726 N.ar    1  UNL1       -0.2364
     21 C          62.4067   85.4306   11.3288 C.ar    1  UNL1        0.0994
     22 C          63.1329   84.6030   12.3474 C.ar    1  UNL1        0.0207
     23 C          64.0501   83.5022   11.9036 C.ar    1  UNL1        0.0016
     24 C          64.2410   83.2290   10.4411 C.ar    1  UNL1        0.0016
     25 C          63.5148   84.0565    9.4224 C.ar    1  UNL1        0.0206
     26 C          62.5977   85.1573    9.8663 C.ar    1  UNL1        0.0986
     27 N          61.8714   85.9850    8.8476 N.ar    1  UNL1       -0.2461
     28 C          60.9543   87.0858    9.2914 C.ar    1  UNL1        0.0828
     29 C          60.2280   87.9135    8.2728 C.3     1  UNL1        0.0543
@<TRIPOS>BOND
     1     9    10    1
     2    10    11   ar
     3    11    12   ar
     4    12    13   ar
     5    13    14    1
     6    13    15   ar
     7    15     1    1
     8     1     2   am
     9     2     3    2
    10     2     4   am
    11     4     5   am
    12     5     6    2
    13     5    17    1
    14    17    18    1
    15    18    19    1
    16    19    20   ar
    17    20    21   ar
    18    21    22   ar
    19    22    23   ar
    20    23    24   ar
    21    24    25   ar
    22    25    26   ar
    23    26    27   ar
    24    27    28   ar
    25    28    29    1
    26    15    16   ar
    27    16    10   ar
    28    28    19   ar
    29    26    21   ar
    30     1     7    1
    31     4     8    1
@<TRIPOS>MOLECULE
*****
 29 31 0 0 0
SMALL
GASTEIGER

@<TRIPOS>ATOM
      1 N          64.6378   89.7212   14.1491 N.am    1  UNL1       -0.2683
      2 C          63.6495   90.0783   13.0787 C.2     1  UNL1        0.3102
      3 O          63.4873   91.5079   12.6544 O.2     1  UNL1       -0.2521
      4 N          62.8234   89.0059   12.4325 N.am    1  UNL1       -0.2387
      5 C          61.8352   89.3630   11.3621 C.2     1  UNL1        0.2407
      6 O          61.6729   90.7925   10.9378 O.2     1  UNL1       -0.2737
      7 H          64.7442   88.7829   14.4276 H       1  UNL1        0.1564
      8 H          62.9299   88.0676   12.7110 H       1  UNL1        0.1591
      9 C          69.0371   92.4748   14.4010 C.3     1  UNL1        0.0311
     10 C          67.6635   92.1705   14.9211 C.ar    1  UNL1       -0.0206
     11 C          67.1159   92.9386   16.0873 C.ar    1  UNL1       -0.0045
     12 C          65.7423   92.6343   16.6075 C.ar    1  UNL1       -0.0034
     13 C          64.9162   91.5619   15.9614 C.ar    1  UNL1       -0.0084
     14 C          63.5426   91.2576   16.4815 C.3     1  UNL1        0.0323
     15 C          65.4638   90.7937   14.7952 C.ar    1  UNL1        0.0472
     16 C          66.8374   91.0980   14.2751 C.ar    1  UNL1        0.0101
     17 C          61.0091   88.2906   10.7160 C.3     1  UNL1        0.1488
     18 S          61.6640   87.2670    9.8365 S.3     1  UNL1       -0.0840
     19 C          62.2417   86.0204   10.4383 C.ar    1  UNL1        0.1206
     20 N          62.1437   85.7862   11.9166 N.ar    1  UNL1       -0.2364
     21 C          62.7214   84.5395   12.5184 C.ar    1  UNL1        0.0994
     22 C          62.6235   84.3053   13.9968 C.ar    1  UNL1        0.0207
     23 C          63.2012   83.0587   14.5985 C.ar    1  UNL1        0.0016
     24 C          63.8768   82.0462   13.7219 C.ar    1  UNL1        0.0016
     25 C          63.9748   82.2804   12.2436 C.ar    1  UNL1        0.0206
     26 C          63.3971   83.5270   11.6418 C.ar    1  UNL1        0.0986
     27 N          63.4951   83.7613   10.1634 N.ar    1  UNL1       -0.2461
     28 C          62.9174   85.0079    9.5617 C.ar    1  UNL1        0.0828
     29 C          63.0153   85.2421    8.0833 C.3     1  UNL1        0.0543
@<TRIPOS>BOND
     1     9    10    1
     2    10    11   ar
     3    11    12   ar
     4    12    13   ar
     5    13    14    1
     6    13    15   ar
     7    15     1    1
     8     1     2   am
     9     2     3    2
    10     2     4   am
    11     4     5   am
    12     5     6    2
    13     5    17    1
    14    17    18    1
    15    18    19    1
    16    19    20   ar
    17    20    21   ar
    18    21    22   ar
    19    22    23   ar
    20    23    24   ar
    21    24    25   ar
    22    25    26   ar
    23    26    27   ar
    24    27    28   ar
    25    28    29    1
    26    15    16   ar
    27    16    10   ar
    28    28    19   ar
    29    26    21   ar
    30     1     7    1
    31     4     8    1
@<TRIPOS>MOLECULE
*****
 29 31 0 0 0
SMALL
GASTEIGER

@<TRIPOS>ATOM
      1 N          63.2584   86.1542   13.1337 N.am    1  UNL1       -0.2683
      2 C          62.7668   87.0204   12.0121 C.2     1  UNL1        0.3102
      3 O          62.1178   86.3970   10.8120 O.2     1  UNL1       -0.2521
      4 N          62.9241   88.5101   12.0906 N.am    1  UNL1       -0.2387
      5 C          62.4325   89.3763   10.9690 C.2     1  UNL1        0.2407
      6 O          61.7836   88.7529    9.7689 O.2     1  UNL1       -0.2737
      7 H          63.6843   86.5634   13.9213 H       1  UNL1        0.1564
      8 H          63.3500   88.9192   12.8782 H       1  UNL1        0.1591
      9 C          63.5550   81.7349   10.4167 C.3     1  UNL1        0.0311
     10 C          63.2494   82.4549   11.6966 C.ar    1  UNL1       -0.0206
     11 C          62.7864   81.6852   12.8980 C.ar    1  UNL1       -0.0045
     12 C          62.4808   82.4052   14.1779 C.ar    1  UNL1       -0.0034
     13 C          62.6381   83.8949   14.2565 C.ar    1  UNL1       -0.0084
     14 C          62.3324   84.6148   15.5364 C.3     1  UNL1        0.0323
     15 C          63.1011   84.6645   13.0551 C.ar    1  UNL1        0.0472
     16 C          63.4067   83.9445   11.7752 C.ar    1  UNL1        0.0101
     17 C          62.5898   90.8659   11.0475 C.3     1  UNL1        0.1488
     18 S          63.8793   91.5071   10.6278 S.3     1  UNL1       -0.0840
     19 C          64.8612   91.9659   11.6649 C.ar    1  UNL1        0.1206
     20 N          64.5876   91.7174   13.1186 N.ar    1  UNL1       -0.2364
     21 C          65.5695   92.1762   14.1557 C.ar    1  UNL1        0.0994
     22 C          65.2959   91.9276   15.6094 C.ar    1  UNL1        0.0207
     23 C          66.2778   92.3864   16.6464 C.ar    1  UNL1        0.0016
     24 C          67.5332   93.0938   16.2297 C.ar    1  UNL1        0.0016
     25 C          67.8067   93.3423   14.7760 C.ar    1  UNL1        0.0206
     26 C          66.8249   92.8835   13.7390 C.ar    1  UNL1        0.0986
     27 N          67.0984   93.1321   12.2851 N.ar    1  UNL1       -0.2461
     28 C          66.1165   92.6733   11.2481 C.ar    1  UNL1        0.0828
     29 C          66.3901   92.9218    9.7943 C.3     1  UNL1        0.0543
@<TRIPOS>BOND
     1     9    10    1
     2    10    11   ar
     3    11    12   ar
     4    12    13   ar
     5    13    14    1
     6    13    15   ar
     7    15     1    1
     8     1     2   am
     9     2     3    2
    10     2     4   am
    11     4     5   am
    12     5     6    2
    13     5    17    1
    14    17    18    1
    15    18    19    1
    16    19    20   ar
    17    20    21   ar
    18    21    22   ar
    19    22    23   ar
    20    23    24   ar
    21    24    25   ar
    22    25    26   ar
    23    26    27   ar
    24    27    28   ar
    25    28    29    1
    26    15    16   ar
    27    16    10   ar
    28    28    19   ar
    29    26    21   ar
    30     1     7    1
    31     4     8    1
@<TRIPOS>MOLECULE
*****
 29 31 0 0 0
SMALL
GASTEIGER

@<TRIPOS>ATOM
      1 N          66.4391   92.3036   12.5150 N.am    1  UNL1       -0.2683
      2 C          65.1948   91.4792   12.6640 C.2     1  UNL1        0.3102
      3 O          64.0604   91.6521   11.6978 O.2     1  UNL1       -0.2521
      4 N          65.0849   90.4819   13.7790 N.am    1  UNL1       -0.2387
      5 C          63.8407   89.6575   13.9280 C.2     1  UNL1        0.2407
      6 O          62.7063   89.8304   12.9620 O.2     1  UNL1       -0.2737
      7 H          67.1836   92.1901   13.1491 H       1  UNL1        0.1564
      8 H          65.8294   90.3685   14.4131 H       1  UNL1        0.1591
      9 C          65.0944   96.8553   10.4000 C.3     1  UNL1        0.0311
     10 C          65.8766   95.5767   10.3424 C.ar    1  UNL1       -0.0206
     11 C          66.7686   95.2954    9.1698 C.ar    1  UNL1       -0.0045
     12 C          67.5509   94.0168    9.1122 C.ar    1  UNL1       -0.0034
     13 C          67.4410   93.0195   10.2273 C.ar    1  UNL1       -0.0084
     14 C          68.2232   91.7409   10.1697 C.3     1  UNL1        0.0323
     15 C          66.5490   93.3008   11.3999 C.ar    1  UNL1        0.0472
     16 C          65.7667   94.5794   11.4574 C.ar    1  UNL1        0.0101
     17 C          63.7308   88.6603   15.0431 C.3     1  UNL1        0.1488
     18 S          64.5601   87.4107   15.0162 S.3     1  UNL1       -0.0840
     19 C          63.8978   86.0743   14.8562 C.ar    1  UNL1        0.1206
     20 N          63.9815   85.3477   13.5467 N.ar    1  UNL1       -0.2364
     21 C          63.3192   84.0113   13.3868 C.ar    1  UNL1        0.0994
     22 C          63.4029   83.2847   12.0772 C.ar    1  UNL1        0.0207
     23 C          62.7406   81.9484   11.9174 C.ar    1  UNL1        0.0016
     24 C          61.9946   81.3387   13.0671 C.ar    1  UNL1        0.0016
     25 C          61.9110   82.0653   14.3766 C.ar    1  UNL1        0.0206
     26 C          62.5732   83.4016   14.5365 C.ar    1  UNL1        0.0986
     27 N          62.4896   84.1283   15.8461 N.ar    1  UNL1       -0.2461
     28 C          63.1518   85.4646   16.0059 C.ar    1  UNL1        0.0828
     29 C          63.0682   86.1913   17.3156 C.3     1  UNL1        0.0543
@<TRIPOS>BOND
     1     9    10    1
     2    10    11   ar
     3    11    12   ar
     4    12    13   ar
     5    13    14    1
     6    13    15   ar
     7    15     1    1
     8     1     2   am
     9     2     3    2
    10     2     4   am
    11     4     5   am
    12     5     6    2
    13     5    17    1
    14    17    18    1
    15    18    19    1
    16    19    20   ar
    17    20    21   ar
    18    21    22   ar
    19    22    23   ar
    20    23    24   ar
    21    24    25   ar
    22    25    26   ar
    23    26    27   ar
    24    27    28   ar
    25    28    29    1
    26    15    16   ar
    27    16    10   ar
    28    28    19   ar
    29    26    21   ar
    30     1     7    1
    31     4     8    1
@<TRIPOS>MOLECULE
*****
 29 31 0 0 0
SMALL
GASTEIGER

@<TRIPOS>ATOM
      1 N          63.6398   89.8902   14.8638 N.am    1  UNL1       -0.2683
      2 C          64.1618   88.4882   14.9727 C.2     1  UNL1        0.3102
      3 O          65.5707   88.1784   14.5615 O.2     1  UNL1       -0.2521
      4 N          63.2749   87.3960   15.4928 N.am    1  UNL1       -0.2387
      5 C          63.7969   85.9940   15.6018 C.2     1  UNL1        0.2407
      6 O          65.2057   85.6841   15.1906 O.2     1  UNL1       -0.2737
      7 H          62.7151   90.0936   15.1337 H       1  UNL1        0.1564
      8 H          62.3502   87.5994   15.7627 H       1  UNL1        0.1591
      9 C          67.4218   93.3682   15.6385 C.3     1  UNL1        0.0311
     10 C          66.4177   92.7214   14.7310 C.ar    1  UNL1       -0.0206
     11 C          66.3006   93.1667   13.3035 C.ar    1  UNL1       -0.0045
     12 C          65.2965   92.5199   12.3960 C.ar    1  UNL1       -0.0034
     13 C          64.4096   91.4278   12.9161 C.ar    1  UNL1       -0.0084
     14 C          63.4055   90.7810   12.0087 C.3     1  UNL1        0.0323
     15 C          64.5267   90.9824   14.3436 C.ar    1  UNL1        0.0472
     16 C          65.5308   91.6292   15.2511 C.ar    1  UNL1        0.0101
     17 C          62.9100   84.9018   16.1219 C.3     1  UNL1        0.1488
     18 S          62.4305   83.8214   15.1984 S.3     1  UNL1       -0.0840
     19 C          62.6473   83.9479   13.7195 C.ar    1  UNL1        0.1206
     20 N          62.2349   85.2009   13.0055 N.ar    1  UNL1       -0.2364
     21 C          62.4518   85.3274   11.5266 C.ar    1  UNL1        0.0994
     22 C          62.0394   86.5804   10.8126 C.ar    1  UNL1        0.0207
     23 C          62.2563   86.7069    9.3338 C.ar    1  UNL1        0.0016
     24 C          62.8855   85.5803    8.5690 C.ar    1  UNL1        0.0016
     25 C          63.2979   84.3273    9.2830 C.ar    1  UNL1        0.0206
     26 C          63.0811   84.2009   10.7618 C.ar    1  UNL1        0.0986
     27 N          63.4935   82.9478   11.4759 N.ar    1  UNL1       -0.2461
     28 C          63.2766   82.8214   12.9547 C.ar    1  UNL1        0.0828
     29 C          63.6890   81.5683   13.6688 C.3     1  UNL1        0.0543
@<TRIPOS>BOND
     1     9    10    1
     2    10    11   ar
     3    11    12   ar
     4    12    13   ar
     5    13    14    1
     6    13    15   ar
     7    15     1    1
     8     1     2   am
     9     2     3    2
    10     2     4   am
    11     4     5   am
    12     5     6    2
    13     5    17    1
    14    17    18    1
    15    18    19    1
    16    19    20   ar
    17    20    21   ar
    18    21    22   ar
    19    22    23   ar
    20    23    24   ar
    21    24    25   ar
    22    25    26   ar
    23    26    27   ar
    24    27    28   ar
    25    28    29    1
    26    15    16   ar
    27    16    10   ar
    28    28    19   ar
    29    26    21   ar
    30     1     7    1
    31     4     8    1
@<TRIPOS>MOLECULE
*****
 29 31 0 0 0
SMALL
GASTEIGER

@<TRIPOS>ATOM
      1 N          62.6891   84.6550   12.3337 N.am    1  UNL1       -0.2683
      2 C          63.6317   85.2760   13.3215 C.2     1  UNL1        0.3102
      3 O          64.6721   84.4330   13.9976 O.2     1  UNL1       -0.2521
      4 N          63.5341   86.7400   13.6332 N.am    1  UNL1       -0.2387
      5 C          64.4768   87.3610   14.6210 C.2     1  UNL1        0.2407
      6 O          65.5171   86.5180   15.2971 O.2     1  UNL1       -0.2737
      7 H          62.0063   85.2083   11.8900 H       1  UNL1        0.1564
      8 H          62.8514   87.2933   13.1895 H       1  UNL1        0.1591
      9 C          61.9762   79.7002   13.7272 C.3     1  UNL1        0.0311
     10 C          62.4303   80.7136   12.7188 C.ar    1  UNL1       -0.0206
     11 C          62.9819   80.2630   11.3988 C.ar    1  UNL1       -0.0045
     12 C          63.4360   81.2764   10.3904 C.ar    1  UNL1       -0.0034
     13 C          63.3384   82.7404   10.7020 C.ar    1  UNL1       -0.0084
     14 C          63.7924   83.7538    9.6936 C.3     1  UNL1        0.0323
     15 C          62.7867   83.1910   12.0220 C.ar    1  UNL1        0.0472
     16 C          62.3327   82.1776   13.0305 C.ar    1  UNL1        0.0101
     17 C          64.3792   88.8250   14.9328 C.3     1  UNL1        0.1488
     18 S          63.4004   89.6861   14.1909 S.3     1  UNL1       -0.0840
     19 C          63.8884   90.6539   13.1539 C.ar    1  UNL1        0.1206
     20 N          64.8062   91.7737   13.5459 N.ar    1  UNL1       -0.2364
     21 C          65.2942   92.7414   12.5089 C.ar    1  UNL1        0.0994
     22 C          66.2119   93.8612   12.9009 C.ar    1  UNL1        0.0207
     23 C          66.6999   94.8289   11.8639 C.ar    1  UNL1        0.0016
     24 C          66.2702   94.6767   10.4348 C.ar    1  UNL1        0.0016
     25 C          65.3525   93.5569   10.0428 C.ar    1  UNL1        0.0206
     26 C          64.8645   92.5893   11.0798 C.ar    1  UNL1        0.0986
     27 N          63.9467   91.4694   10.6878 N.ar    1  UNL1       -0.2461
     28 C          63.4587   90.5017   11.7248 C.ar    1  UNL1        0.0828
     29 C          62.5409   89.3818   11.3328 C.3     1  UNL1        0.0543
@<TRIPOS>BOND
     1     9    10    1
     2    10    11   ar
     3    11    12   ar
     4    12    13   ar
     5    13    14    1
     6    13    15   ar
     7    15     1    1
     8     1     2   am
     9     2     3    2
    10     2     4   am
    11     4     5   am
    12     5     6    2
    13     5    17    1
    14    17    18    1
    15    18    19    1
    16    19    20   ar
    17    20    21   ar
    18    21    22   ar
    19    22    23   ar
    20    23    24   ar
    21    24    25   ar
    22    25    26   ar
    23    26    27   ar
    24    27    28   ar
    25    28    29    1
    26    15    16   ar
    27    16    10   ar
    28    28    19   ar
    29    26    21   ar
    30     1     7    1
    31     4     8    1
@<TRIPOS>MOLECULE
*****
 29 31 0 0 0
SMALL
GASTEIGER

@<TRIPOS>ATOM
      1 N          63.2480   84.9183   12.4094 N.am    1  UNL1       -0.2683
      2 C          62.4160   85.8670   11.5984 C.2     1  UNL1        0.3102
      3 O          61.3582   85.3370   10.6763 O.2     1  UNL1       -0.2521
      4 N          62.6417   87.3457   11.7095 N.am    1  UNL1       -0.2387
      5 C          61.8097   88.2945   10.8985 C.2     1  UNL1        0.2407
      6 O          60.7519   87.7645    9.9765 O.2     1  UNL1       -0.2737
      7 H          63.9423   85.2662   13.0145 H       1  UNL1        0.1564
      8 H          63.3360   87.6936   12.3146 H       1  UNL1        0.1591
      9 C          61.2109   80.5234   14.2895 C.3     1  UNL1        0.0311
     10 C          62.0037   81.2421   13.2383 C.ar    1  UNL1       -0.0206
     11 C          62.5707   80.4821   12.0761 C.ar    1  UNL1       -0.0045
     12 C          63.3634   81.2008   11.0249 C.ar    1  UNL1       -0.0034
     13 C          63.5892   82.6795   11.1360 C.ar    1  UNL1       -0.0084
     14 C          64.3820   83.3982   10.0848 C.3     1  UNL1        0.0323
     15 C          63.0223   83.4395   12.2982 C.ar    1  UNL1        0.0472
     16 C          62.2295   82.7208   13.3494 C.ar    1  UNL1        0.0101
     17 C          62.0354   89.7732   11.0096 C.3     1  UNL1        0.1488
     18 S          62.1978   90.4078   12.3590 S.3     1  UNL1       -0.0840
     19 C          63.4738   91.1161   12.7060 C.ar    1  UNL1        0.1206
     20 N          63.9160   91.2069   14.1364 N.ar    1  UNL1       -0.2364
     21 C          65.1920   91.9152   14.4835 C.ar    1  UNL1        0.0994
     22 C          65.6342   92.0060   15.9139 C.ar    1  UNL1        0.0207
     23 C          66.9101   92.7143   16.2609 C.ar    1  UNL1        0.0016
     24 C          67.7438   93.3316   15.1775 C.ar    1  UNL1        0.0016
     25 C          67.3016   93.2408   13.7470 C.ar    1  UNL1        0.0206
     26 C          66.0257   92.5326   13.4001 C.ar    1  UNL1        0.0986
     27 N          65.5834   92.4417   11.9696 N.ar    1  UNL1       -0.2461
     28 C          64.3075   91.7335   11.6226 C.ar    1  UNL1        0.0828
     29 C          63.8652   91.6426   10.1921 C.3     1  UNL1        0.0543
@<TRIPOS>BOND
     1     9    10    1
     2    10    11   ar
     3    11    12   ar
     4    12    13   ar
     5    13    14    1
     6    13    15   ar
     7    15     1    1
     8     1     2   am
     9     2     3    2
    10     2     4   am
    11     4     5   am
    12     5     6    2
    13     5    17    1
    14    17    18    1
    15    18    19    1
    16    19    20   ar
    17    20    21   ar
    18    21    22   ar
    19    22    23   ar
    20    23    24   ar
    21    24    25   ar
    22    25    26   ar
    23    26    27   ar
    24    27    28   ar
    25    28    29    1
    26    15    16   ar
    27    16    10   ar
    28    28    19   ar
    29    26    21   ar
    30     1     7    1
    31     4     8    1
@<TRIPOS>MOLECULE
*****
 29 31 0 0 0
SMALL
GASTEIGER

@<TRIPOS>ATOM
      1 N          62.6358   85.0661   11.9238 N.am    1  UNL1       -0.2683
      2 C          63.3958   85.8494   12.9529 C.2     1  UNL1        0.3102
      3 O          64.2358   85.1347   13.9698 O.2     1  UNL1       -0.2521
      4 N          63.3160   87.3471   12.9652 N.am    1  UNL1       -0.2387
      5 C          64.0759   88.1304   13.9942 C.2     1  UNL1        0.2407
      6 O          64.9158   87.4158   15.0110 O.2     1  UNL1       -0.2737
      7 H          62.0846   85.5351   11.2565 H       1  UNL1        0.1564
      8 H          62.7647   87.8162   12.2978 H       1  UNL1        0.1591
      9 C          61.6309   80.4877   14.1662 C.3     1  UNL1        0.0311
     10 C          62.2133   81.2791   13.0328 C.ar    1  UNL1       -0.0206
     11 C          62.8756   80.5727   11.8873 C.ar    1  UNL1       -0.0045
     12 C          63.4580   81.3641   10.7539 C.ar    1  UNL1       -0.0034
     13 C          63.3781   82.8619   10.7661 C.ar    1  UNL1       -0.0084
     14 C          63.9604   83.6532    9.6327 C.3     1  UNL1        0.0323
     15 C          62.7158   83.5683   11.9116 C.ar    1  UNL1        0.0472
     16 C          62.1334   82.7769   13.0450 C.ar    1  UNL1        0.0101
     17 C          63.9961   89.6282   14.0065 C.3     1  UNL1        0.1488
     18 S          65.1480   90.4365   14.5257 S.3     1  UNL1       -0.0840
     19 C          65.5136   91.7322   13.8642 C.ar    1  UNL1        0.1206
     20 N          65.3324   91.8960   12.3843 N.ar    1  UNL1       -0.2364
     21 C          65.6980   93.1918   11.7228 C.ar    1  UNL1        0.0994
     22 C          65.5169   93.3556   10.2428 C.ar    1  UNL1        0.0207
     23 C          65.8824   94.6513    9.5814 C.ar    1  UNL1        0.0016
     24 C          66.4290   95.7832   10.4000 C.ar    1  UNL1        0.0016
     25 C          66.6101   95.6194   11.8799 C.ar    1  UNL1        0.0206
     26 C          66.2446   94.3237   12.5413 C.ar    1  UNL1        0.0986
     27 N          66.4257   94.1598   14.0213 N.ar    1  UNL1       -0.2461
     28 C          66.0602   92.8641   14.6828 C.ar    1  UNL1        0.0828
     29 C          66.2413   92.7002   16.1628 C.3     1  UNL1        0.0543
@<TRIPOS>BOND
     1     9    10    1
     2    10    11   ar
     3    11    12   ar
     4    12    13   ar
     5    13    14    1
     6    13    15   ar
     7    15     1    1
     8     1     2   am
     9     2     3    2
    10     2     4   am
    11     4     5   am
    12     5     6    2
    13     5    17    1
    14    17    18    1
    15    18    19    1
    16    19    20   ar
    17    20    21   ar
    18    21    22   ar
    19    22    23   ar
    20    23    24   ar
    21    24    25   ar
    22    25    26   ar
    23    26    27   ar
    24    27    28   ar
    25    28    29    1
    26    15    16   ar
    27    16    10   ar
    28    28    19   ar
    29    26    21   ar
    30     1     7    1
    31     4     8    1
@<TRIPOS>MOLECULE
*****
 29 31 0 0 0
SMALL
GASTEIGER

@<TRIPOS>ATOM
      1 N          64.0692   84.4189   13.4248 N.am    1  UNL1       -0.2683
      2 C          63.3167   84.9615   14.6035 C.2     1  UNL1        0.3102
      3 O          62.1286   84.2200   15.1408 O.2     1  UNL1       -0.2521
      4 N          63.7523   86.2456   15.2449 N.am    1  UNL1       -0.2387
      5 C          62.9998   86.7882   16.4236 C.2     1  UNL1        0.2407
      6 O          61.8117   86.0467   16.9609 O.2     1  UNL1       -0.2737
      7 H          64.8490   84.9055   13.0722 H       1  UNL1        0.1564
      8 H          64.5320   86.7322   14.8923 H       1  UNL1        0.1591
      9 C          62.2165   79.5822   13.8424 C.3     1  UNL1        0.0311
     10 C          62.7072   80.7165   12.9923 C.ar    1  UNL1       -0.0206
     11 C          62.7624   80.5666   11.5008 C.ar    1  UNL1       -0.0045
     12 C          63.2531   81.7008   10.6507 C.ar    1  UNL1       -0.0034
     13 C          63.6887   82.9849   11.2920 C.ar    1  UNL1       -0.0084
     14 C          64.1795   84.1191   10.4419 C.3     1  UNL1        0.0323
     15 C          63.6336   83.1347   12.7834 C.ar    1  UNL1        0.0472
     16 C          63.1428   82.0005   13.6336 C.ar    1  UNL1        0.0101
     17 C          63.4353   88.0722   17.0650 C.3     1  UNL1        0.1488
     18 S          62.8095   89.3696   16.6466 S.3     1  UNL1       -0.0840
     19 C          63.1743   89.9880   15.3296 C.ar    1  UNL1        0.1206
     20 N          62.6297   89.4143   14.0551 N.ar    1  UNL1       -0.2364
     21 C          62.9946   90.0326   12.7381 C.ar    1  UNL1        0.0994
     22 C          62.4500   89.4589   11.4637 C.ar    1  UNL1        0.0207
     23 C          62.8148   90.0773   10.1467 C.ar    1  UNL1        0.0016
     24 C          63.7243   91.2694   10.1041 C.ar    1  UNL1        0.0016
     25 C          64.2688   91.8431   11.3786 C.ar    1  UNL1        0.0206
     26 C          63.9040   91.2248   12.6955 C.ar    1  UNL1        0.0986
     27 N          64.4486   91.7985   13.9701 N.ar    1  UNL1       -0.2461
     28 C          64.0837   91.1801   15.2870 C.ar    1  UNL1        0.0828
     29 C          64.6283   91.7539   16.5616 C.3     1  UNL1        0.0543
@<TRIPOS>BOND
     1     9    10    1
     2    10    11   ar
     3    11    12   ar
     4    12    13   ar
     5    13    14    1
     6    13    15   ar
     7    15     1    1
     8     1     2   am
     9     2     3    2
    10     2     4   am
    11     4     5   am
    12     5     6    2
    13     5    17    1
    14    17    18    1
    15    18    19    1
    16    19    20   ar
    17    20    21   ar
    18    21    22   ar
    19    22    23   ar
    20    23    24   ar
    21    24    25   ar
    22    25    26   ar
    23    26    27   ar
    24    27    28   ar
    25    28    29    1
    26    15    16   ar
    27    16    10   ar
    28    28    19   ar
    29    26    21   ar
    30     1     7    1
    31     4     8    1
