@<TRIPOS>MOLECULE
*****
 38 42 0 0 0
SMALL
GASTEIGER

@<TRIPOS>ATOM
      1 N          62.5706   89.6754   10.6809 N.pl3   1  UNL1       -0.2739
      2 C          63.1320   91.0260   10.3485 C.3     1  UNL1        0.1079
      3 C          64.0440   91.4367   11.4664 C.3     1  UNL1        0.1498
      4 C          64.8727   92.6678   11.6847 C.2     1  UNL1        0.2919
      5 O          64.8706   93.7647   10.6615 O.2     1  UNL1       -0.2563
      6 N          65.7037   92.8020   12.9264 N.am    1  UNL1       -0.1449
      7 C          66.5325   94.0331   13.1448 C.3     1  UNL1        0.2159
      8 C          65.7058   91.7052   13.9496 C.2     1  UNL1        0.3728
      9 N          66.5368   91.8394   15.1912 N.2     1  UNL1       -0.1329
     10 N          64.8771   90.4741   13.7312 N.pl3   1  UNL1       -0.2247
     11 C          64.0462   90.3399   12.4896 C.3     1  UNL1        0.1559
     12 C          63.1356   89.2513   12.0042 C.3     1  UNL1        0.1327
     13 H          67.0807   92.6473   15.3346 H       1  UNL1        0.3058
     14 H          64.8786   89.7543   14.4028 H       1  UNL1        0.2454
     15 C          59.7302   88.8067    8.0487 C.ar    1  UNL1        0.2571
     16 N          60.6885   89.5949    8.8917 N.ar    1  UNL1       -0.1768
     17 C          61.6124   88.8871    9.8380 C.ar    1  UNL1        0.2230
     18 N          61.5780   87.3911    9.9414 N.ar    1  UNL1       -0.2095
     19 C          60.6198   86.6029    9.0985 C.ar    1  UNL1        0.1362
     20 C          59.6959   87.3106    8.1522 C.ar    1  UNL1        0.2121
     21 F          58.7377   86.5224    7.3093 F       1  UNL1       -0.1976
     22 O          58.8064   89.5145    7.1025 O.3     1  UNL1       -0.4586
     23 C          59.3341   90.0670    5.8116 C.3     1  UNL1        0.2072
     24 C          57.3153   91.4569    4.9500 C.3     1  UNL1        0.0040
     25 C          58.7786   91.3468    5.2608 C.3     1  UNL1        0.0474
     26 C          63.9482   89.1667   13.4191 C.ar    1  UNL1        0.0397
     27 C          63.8170   87.7287   13.0130 C.ar    1  UNL1        0.0057
     28 C          63.7519   86.8987   14.2609 C.ar    1  UNL1        0.0068
     29 C          63.8429   87.8238   15.4381 C.ar    1  UNL1        0.0352
     30 S          63.9642   89.2255   14.9179 S.2     1  UNL1       -0.0878
     31 C          63.6191   85.4058   14.3208 C.ar    1  UNL1        0.0012
     32 C          63.5373   84.7129   15.6488 C.ar    1  UNL1        0.0001
     33 C          63.4046   83.2200   15.7087 C.ar    1  UNL1        0.0007
     34 C          63.3535   82.4201   14.4409 C.ar    1  UNL1        0.0103
     35 C          63.4353   83.1130   13.1130 C.ar    1  UNL1        0.0684
     36 C          63.5681   84.6059   13.0530 C.ar    1  UNL1        0.0103
     37 C          63.3843   82.3129   11.8452 C.1     1  UNL1        0.1004
     38 N          63.3333   81.5128   10.5774 N.1     1  UNL1       -0.1908
@<TRIPOS>BOND
     1    24    25    1
     2    25    23    1
     3    23    22    1
     4    22    15    1
     5    15    16   ar
     6    16    17   ar
     7    17     1    1
     8     1     2    1
     9     3     2    1
    10     3     4    1
    11     4     5    2
    12     4     6   am
    13     6     7    1
    14     6     8    1
    15     8     9    2
    16     8    10    1
    17    10    11    1
    18    11    26    1
    19    26    27   ar
    20    27    28   ar
    21    28    31    1
    22    31    32   ar
    23    32    33   ar
    24    33    34   ar
    25    34    35   ar
    26    35    37    1
    27    37    38    3
    28    35    36   ar
    29    28    29   ar
    30    29    30   ar
    31    11    12    1
    32    17    18   ar
    33    18    19   ar
    34    19    20   ar
    35    20    21    1
    36    20    15   ar
    37    12     1    1
    38    11     3    1
    39    30    26   ar
    40    36    31   ar
    41     9    13    1
    42    10    14    1
@<TRIPOS>MOLECULE
*****
 38 42 0 0 0
SMALL
GASTEIGER

@<TRIPOS>ATOM
      1 N          63.0503   90.3609   10.7724 N.pl3   1  UNL1       -0.2739
      2 C          63.7061   91.4672   10.0004 C.3     1  UNL1        0.1079
      3 C          64.5509   92.2598   10.9533 C.3     1  UNL1        0.1498
      4 C          65.4246   93.4632   10.7575 C.2     1  UNL1        0.2919
      5 O          65.5583   94.0797    9.3965 O.2     1  UNL1       -0.2563
      6 N          66.1647   94.0503   11.9228 N.am    1  UNL1       -0.1449
      7 C          67.0384   95.2538   11.7270 C.3     1  UNL1        0.2159
      8 C          66.0310   93.4339   13.2836 C.2     1  UNL1        0.3728
      9 N          66.7711   94.0209   14.4489 N.2     1  UNL1       -0.1329
     10 N          65.1573   92.2305   13.4794 N.pl3   1  UNL1       -0.2247
     11 C          64.4172   91.6434   12.3142 C.3     1  UNL1        0.1559
     12 C          63.4898   90.4698   12.2025 C.3     1  UNL1        0.1327
     13 H          67.3445   94.8108   14.3205 H       1  UNL1        0.3058
     14 H          65.0696   91.8259   14.3726 H       1  UNL1        0.2454
     15 C          61.4153   86.8402    9.9467 C.ar    1  UNL1        0.2571
     16 N          62.3470   87.8740   10.5064 N.ar    1  UNL1       -0.1768
     17 C          62.1186   89.3271   10.2127 C.ar    1  UNL1        0.2230
     18 N          60.9584   89.7465    9.3594 N.ar    1  UNL1       -0.2095
     19 C          60.0267   88.7127    8.7998 C.ar    1  UNL1        0.1362
     20 C          60.2551   87.2595    9.0934 C.ar    1  UNL1        0.2121
     21 F          59.3234   86.2258    8.5337 F       1  UNL1       -0.1976
     22 O          61.6438   85.3871   10.2404 O.3     1  UNL1       -0.4586
     23 C          62.6275   84.9812   11.2975 C.3     1  UNL1        0.2072
     24 C          64.1975   83.1461   10.3396 C.3     1  UNL1        0.0040
     25 C          63.1572   83.5782   11.3300 C.3     1  UNL1        0.0474
     26 C          64.1869   90.9223   13.6092 C.ar    1  UNL1        0.0397
     27 C          63.9697   89.4469   13.7702 C.ar    1  UNL1        0.0057
     28 C          63.7819   89.1628   15.2311 C.ar    1  UNL1        0.0068
     29 C          63.8831   90.4626   15.9729 C.ar    1  UNL1        0.0352
     30 S          64.1334   91.5500   14.9705 S.2     1  UNL1       -0.0878
     31 C          63.5361   87.8154   15.8427 C.ar    1  UNL1        0.0012
     32 C          62.8981   87.7113   17.1964 C.ar    1  UNL1        0.0001
     33 C          62.6524   86.3639   17.8080 C.ar    1  UNL1        0.0007
     34 C          63.0445   85.1206   17.0660 C.ar    1  UNL1        0.0103
     35 C          63.6824   85.2247   15.7124 C.ar    1  UNL1        0.0684
     36 C          63.9282   86.5721   15.1008 C.ar    1  UNL1        0.0103
     37 C          64.0745   83.9814   14.9705 C.1     1  UNL1        0.1004
     38 N          64.4666   82.7381   14.2286 N.1     1  UNL1       -0.1908
@<TRIPOS>BOND
     1    24    25    1
     2    25    23    1
     3    23    22    1
     4    22    15    1
     5    15    16   ar
     6    16    17   ar
     7    17     1    1
     8     1     2    1
     9     3     2    1
    10     3     4    1
    11     4     5    2
    12     4     6   am
    13     6     7    1
    14     6     8    1
    15     8     9    2
    16     8    10    1
    17    10    11    1
    18    11    26    1
    19    26    27   ar
    20    27    28   ar
    21    28    31    1
    22    31    32   ar
    23    32    33   ar
    24    33    34   ar
    25    34    35   ar
    26    35    37    1
    27    37    38    3
    28    35    36   ar
    29    28    29   ar
    30    29    30   ar
    31    11    12    1
    32    17    18   ar
    33    18    19   ar
    34    19    20   ar
    35    20    21    1
    36    20    15   ar
    37    12     1    1
    38    11     3    1
    39    30    26   ar
    40    36    31   ar
    41     9    13    1
    42    10    14    1
@<TRIPOS>MOLECULE
*****
 38 42 0 0 0
SMALL
GASTEIGER

@<TRIPOS>ATOM
      1 N          62.2545   85.9283   11.4162 N.pl3   1  UNL1       -0.2739
      2 C          61.4828   85.3968   10.2449 C.3     1  UNL1        0.1079
      3 C          60.9695   86.5666    9.4587 C.3     1  UNL1        0.1498
      4 C          60.1470   86.6515    8.2072 C.2     1  UNL1        0.2919
      5 O          59.6924   85.3970    7.5218 O.2     1  UNL1       -0.2563
      6 N          59.7789   87.9910    7.6412 N.am    1  UNL1       -0.1449
      7 C          58.9563   88.0760    6.3896 C.3     1  UNL1        0.2159
      8 C          60.2334   89.2454    8.3265 C.2     1  UNL1        0.3728
      9 N          59.8653   90.5849    7.7605 N.2     1  UNL1       -0.1329
     10 N          61.0559   89.1605    9.5780 N.pl3   1  UNL1       -0.2247
     11 C          61.4240   87.8211   10.1441 C.3     1  UNL1        0.1559
     12 C          62.2182   87.4266   11.3539 C.3     1  UNL1        0.1327
     13 H          59.3254   90.6407    6.9391 H       1  UNL1        0.3058
     14 H          61.3542   89.9838   10.0278 H       1  UNL1        0.2454
     15 C          63.6776   82.7899   13.3849 C.ar    1  UNL1        0.2571
     16 N          62.9902   83.6124   12.3356 N.ar    1  UNL1       -0.1768
     17 C          62.9419   85.1060   12.4656 C.ar    1  UNL1        0.2230
     18 N          63.5811   85.7772   13.6450 N.ar    1  UNL1       -0.2095
     19 C          64.2685   84.9547   14.6943 C.ar    1  UNL1        0.1362
     20 C          64.3168   83.4612   14.5643 C.ar    1  UNL1        0.2121
     21 F          65.0042   82.6388   15.6137 F       1  UNL1       -0.1976
     22 O          63.7259   81.2964   13.2548 O.3     1  UNL1       -0.4586
     23 C          62.4849   80.4837   13.4769 C.3     1  UNL1        0.2072
     24 C          59.9806   80.3827   14.1612 C.3     1  UNL1        0.0040
     25 C          61.3000   81.0963   14.1630 C.3     1  UNL1        0.0474
     26 C          61.9478   88.9827   10.9354 C.ar    1  UNL1        0.0397
     27 C          63.1909   89.7661   10.6337 C.ar    1  UNL1        0.0057
     28 C          63.3319   90.8325   11.6792 C.ar    1  UNL1        0.0068
     29 C          62.1760   90.7081   12.6270 C.ar    1  UNL1        0.0352
     30 S          61.3206   89.5648   12.1673 S.2     1  UNL1       -0.0878
     31 C          64.4352   91.8454   11.7623 C.ar    1  UNL1        0.0012
     32 C          64.8130   92.6438   10.5499 C.ar    1  UNL1        0.0001
     33 C          65.9162   93.6567   10.6329 C.ar    1  UNL1        0.0007
     34 C          66.6416   93.8711   11.9282 C.ar    1  UNL1        0.0103
     35 C          66.2637   93.0727   13.1405 C.ar    1  UNL1        0.0684
     36 C          65.1605   92.0598   13.0576 C.ar    1  UNL1        0.0103
     37 C          66.9892   93.2871   14.4358 C.1     1  UNL1        0.1004
     38 N          67.7146   93.5015   15.7312 N.1     1  UNL1       -0.1908
@<TRIPOS>BOND
     1    24    25    1
     2    25    23    1
     3    23    22    1
     4    22    15    1
     5    15    16   ar
     6    16    17   ar
     7    17     1    1
     8     1     2    1
     9     3     2    1
    10     3     4    1
    11     4     5    2
    12     4     6   am
    13     6     7    1
    14     6     8    1
    15     8     9    2
    16     8    10    1
    17    10    11    1
    18    11    26    1
    19    26    27   ar
    20    27    28   ar
    21    28    31    1
    22    31    32   ar
    23    32    33   ar
    24    33    34   ar
    25    34    35   ar
    26    35    37    1
    27    37    38    3
    28    35    36   ar
    29    28    29   ar
    30    29    30   ar
    31    11    12    1
    32    17    18   ar
    33    18    19   ar
    34    19    20   ar
    35    20    21    1
    36    20    15   ar
    37    12     1    1
    38    11     3    1
    39    30    26   ar
    40    36    31   ar
    41     9    13    1
    42    10    14    1
@<TRIPOS>MOLECULE
*****
 38 42 0 0 0
SMALL
GASTEIGER

@<TRIPOS>ATOM
      1 N          62.2327   85.8275   11.4274 N.pl3   1  UNL1       -0.2739
      2 C          61.5572   85.2849   10.2030 C.3     1  UNL1        0.1079
      3 C          61.0101   86.4439    9.4235 C.3     1  UNL1        0.1498
      4 C          60.2483   86.5155    8.1333 C.2     1  UNL1        0.2919
      5 O          59.9109   85.2567    7.3905 O.2     1  UNL1       -0.2563
      6 N          59.8239   87.8460    7.5859 N.am    1  UNL1       -0.1449
      7 C          59.0621   87.9177    6.2956 C.3     1  UNL1        0.2159
      8 C          60.1612   89.1048    8.3285 C.2     1  UNL1        0.3728
      9 N          59.7368   90.4353    7.7811 N.2     1  UNL1       -0.1329
     10 N          60.9230   89.0331    9.6187 N.pl3   1  UNL1       -0.2247
     11 C          61.3475   87.7027   10.1662 C.3     1  UNL1        0.1559
     12 C          62.1031   87.3218   11.4047 C.3     1  UNL1        0.1327
     13 H          59.2368   90.4824    6.9343 H       1  UNL1        0.3058
     14 H          61.1444   89.8593   10.1062 H       1  UNL1        0.2454
     15 C          63.7833   84.7762   14.9261 C.ar    1  UNL1        0.2571
     16 N          63.0984   85.5856   13.8650 N.ar    1  UNL1       -0.1768
     17 C          62.9176   85.0180   12.4884 C.ar    1  UNL1        0.2230
     18 N          63.4216   83.6410   12.1727 N.ar    1  UNL1       -0.2095
     19 C          64.1065   82.8315   13.2338 C.ar    1  UNL1        0.1362
     20 C          64.2873   83.3991   14.6104 C.ar    1  UNL1        0.2121
     21 F          64.9722   82.5896   15.6714 F       1  UNL1       -0.1976
     22 O          63.9641   85.3438   16.3027 O.3     1  UNL1       -0.4586
     23 C          62.7755   85.8394   17.0717 C.3     1  UNL1        0.2072
     24 C          63.1517   88.3940   16.7848 C.3     1  UNL1        0.0040
     25 C          62.7789   87.2246   17.6471 C.3     1  UNL1        0.0474
     26 C          61.7545   88.8699   11.0157 C.ar    1  UNL1        0.0397
     27 C          63.1500   89.3938   11.1840 C.ar    1  UNL1        0.0057
     28 C          63.0956   90.5659   12.1184 C.ar    1  UNL1        0.0068
     29 C          61.6665   90.7665   12.5276 C.ar    1  UNL1        0.0352
     30 S          60.8377   89.7183   11.8461 S.2     1  UNL1       -0.0878
     31 C          64.2649   91.3924   12.5652 C.ar    1  UNL1        0.0012
     32 C          64.8197   91.2209   13.9483 C.ar    1  UNL1        0.0001
     33 C          65.9891   92.0473   14.3950 C.ar    1  UNL1        0.0007
     34 C          66.6036   93.0452   13.4588 C.ar    1  UNL1        0.0103
     35 C          66.0488   93.2166   12.0757 C.ar    1  UNL1        0.0684
     36 C          64.8795   92.3902   11.6289 C.ar    1  UNL1        0.0103
     37 C          66.6635   94.2145   11.1395 C.1     1  UNL1        0.1004
     38 N          67.2780   95.2123   10.2032 N.1     1  UNL1       -0.1908
@<TRIPOS>BOND
     1    24    25    1
     2    25    23    1
     3    23    22    1
     4    22    15    1
     5    15    16   ar
     6    16    17   ar
     7    17     1    1
     8     1     2    1
     9     3     2    1
    10     3     4    1
    11     4     5    2
    12     4     6   am
    13     6     7    1
    14     6     8    1
    15     8     9    2
    16     8    10    1
    17    10    11    1
    18    11    26    1
    19    26    27   ar
    20    27    28   ar
    21    28    31    1
    22    31    32   ar
    23    32    33   ar
    24    33    34   ar
    25    34    35   ar
    26    35    37    1
    27    37    38    3
    28    35    36   ar
    29    28    29   ar
    30    29    30   ar
    31    11    12    1
    32    17    18   ar
    33    18    19   ar
    34    19    20   ar
    35    20    21    1
    36    20    15   ar
    37    12     1    1
    38    11     3    1
    39    30    26   ar
    40    36    31   ar
    41     9    13    1
    42    10    14    1
@<TRIPOS>MOLECULE
*****
 38 42 0 0 0
SMALL
GASTEIGER

@<TRIPOS>ATOM
      1 N          64.1790   88.5038   14.2784 N.pl3   1  UNL1       -0.2739
      2 C          65.0973   89.3875   15.0694 C.3     1  UNL1        0.1079
      3 C          65.2850   90.6640   14.3043 C.3     1  UNL1        0.1498
      4 C          66.0829   91.9004   14.5952 C.2     1  UNL1        0.2919
      5 O          66.8853   91.9953   15.8590 O.2     1  UNL1       -0.2563
      6 N          66.0784   93.0421   13.6221 N.am    1  UNL1       -0.1449
      7 C          66.8763   94.2786   13.9130 C.3     1  UNL1        0.2159
      8 C          65.2761   92.9472   12.3583 C.2     1  UNL1        0.3728
      9 N          65.2716   94.0888   11.3853 N.2     1  UNL1       -0.1329
     10 N          64.4782   91.7108   12.0675 N.pl3   1  UNL1       -0.2247
     11 C          64.4827   90.5692   13.0405 C.3     1  UNL1        0.1559
     12 C          63.7991   89.2341   13.0245 C.3     1  UNL1        0.1327
     13 H          65.7953   94.9004   11.5761 H       1  UNL1        0.3058
     14 H          63.9516   91.6486   11.2380 H       1  UNL1        0.2454
     15 C          63.1021   84.6926   14.0222 C.ar    1  UNL1        0.2571
     16 N          63.5602   86.0657   13.6285 N.ar    1  UNL1       -0.1768
     17 C          63.7209   87.1309   14.6723 C.ar    1  UNL1        0.2230
     18 N          63.4235   86.8230   16.1099 N.ar    1  UNL1       -0.2095
     19 C          62.9654   85.4500   16.5036 C.ar    1  UNL1        0.1362
     20 C          62.8047   84.3848   15.4598 C.ar    1  UNL1        0.2121
     21 F          62.3466   83.0119   15.8536 F       1  UNL1       -0.1976
     22 O          62.9414   83.6276   12.9783 O.3     1  UNL1       -0.4586
     23 C          64.1433   82.8874   12.4707 C.3     1  UNL1        0.2072
     24 C          63.8341   83.5541    9.9788 C.3     1  UNL1        0.0040
     25 C          64.2580   82.5536   11.0129 C.3     1  UNL1        0.0474
     26 C          63.6369   90.3313   11.8247 C.ar    1  UNL1        0.0397
     27 C          62.9165   89.0598   11.4869 C.ar    1  UNL1        0.0057
     28 C          62.1973   89.2659   10.1867 C.ar    1  UNL1        0.0068
     29 C          62.4732   90.6648    9.7211 C.ar    1  UNL1        0.0352
     30 S          63.3629   91.3233   10.7334 S.2     1  UNL1       -0.0878
     31 C          61.3508   88.2511    9.4769 C.ar    1  UNL1        0.0012
     32 C          59.8576   88.2921    9.6142 C.ar    1  UNL1        0.0001
     33 C          59.0112   87.2774    8.9044 C.ar    1  UNL1        0.0007
     34 C          59.6578   86.2218    8.0573 C.ar    1  UNL1        0.0103
     35 C          61.1510   86.1809    7.9201 C.ar    1  UNL1        0.0684
     36 C          61.9975   87.1955    8.6299 C.ar    1  UNL1        0.0103
     37 C          61.7976   85.1252    7.0730 C.1     1  UNL1        0.1004
     38 N          62.4442   84.0696    6.2259 N.1     1  UNL1       -0.1908
@<TRIPOS>BOND
     1    24    25    1
     2    25    23    1
     3    23    22    1
     4    22    15    1
     5    15    16   ar
     6    16    17   ar
     7    17     1    1
     8     1     2    1
     9     3     2    1
    10     3     4    1
    11     4     5    2
    12     4     6   am
    13     6     7    1
    14     6     8    1
    15     8     9    2
    16     8    10    1
    17    10    11    1
    18    11    26    1
    19    26    27   ar
    20    27    28   ar
    21    28    31    1
    22    31    32   ar
    23    32    33   ar
    24    33    34   ar
    25    34    35   ar
    26    35    37    1
    27    37    38    3
    28    35    36   ar
    29    28    29   ar
    30    29    30   ar
    31    11    12    1
    32    17    18   ar
    33    18    19   ar
    34    19    20   ar
    35    20    21    1
    36    20    15   ar
    37    12     1    1
    38    11     3    1
    39    30    26   ar
    40    36    31   ar
    41     9    13    1
    42    10    14    1
@<TRIPOS>MOLECULE
*****
 38 42 0 0 0
SMALL
GASTEIGER

@<TRIPOS>ATOM
      1 N          62.9570   89.8037   12.5513 N.pl3   1  UNL1       -0.2739
      2 C          62.1692   90.4280   11.4379 C.3     1  UNL1        0.1079
      3 C          61.5948   89.3237   10.6007 C.3     1  UNL1        0.1498
      4 C          60.7336   89.3393    9.3727 C.2     1  UNL1        0.2919
      5 O          60.3007   90.6460    8.7767 O.2     1  UNL1       -0.2563
      6 N          60.3053   88.0481    8.7407 N.am    1  UNL1       -0.1449
      7 C          59.4440   88.0636    7.5126 C.3     1  UNL1        0.2159
      8 C          60.7382   86.7415    9.3367 C.2     1  UNL1        0.3728
      9 N          60.3098   85.4502    8.7047 N.2     1  UNL1       -0.1329
     10 N          61.5994   86.7259   10.5647 N.pl3   1  UNL1       -0.2247
     11 C          62.0277   88.0171   11.1967 C.3     1  UNL1        0.1559
     12 C          62.8696   88.3137   12.4023 C.3     1  UNL1        0.1327
     13 H          59.7446   85.4604    7.8987 H       1  UNL1        0.3058
     14 H          61.8835   85.8683   10.9559 H       1  UNL1        0.2454
     15 C          65.6624   92.0826   14.3508 C.ar    1  UNL1        0.2571
     16 N          64.9177   91.3461   13.2769 N.ar    1  UNL1       -0.1768
     17 C          63.7015   90.5402   13.6252 C.ar    1  UNL1        0.2230
     18 N          63.2298   90.4708   15.0474 N.ar    1  UNL1       -0.2095
     19 C          63.9744   91.2073   16.1213 C.ar    1  UNL1        0.1362
     20 C          65.1907   92.0132   15.7730 C.ar    1  UNL1        0.2121
     21 F          65.9352   92.7497   16.8469 F       1  UNL1       -0.1976
     22 O          66.8786   92.8884   14.0024 O.3     1  UNL1       -0.4586
     23 C          68.2469   92.3334   14.2661 C.3     1  UNL1        0.2072
     24 C          69.0508   94.0297   16.0623 C.3     1  UNL1        0.0040
     25 C          68.9333   92.6180   15.5692 C.3     1  UNL1        0.0474
     26 C          62.5361   86.7945   11.9017 C.ar    1  UNL1        0.0397
     27 C          62.0431   85.3922   11.7011 C.ar    1  UNL1        0.0057
     28 C          62.8290   84.4906   12.6065 C.ar    1  UNL1        0.0068
     29 C          63.8076   85.3359   13.3667 C.ar    1  UNL1        0.0352
     30 S          63.6265   86.7598   12.9311 S.2     1  UNL1       -0.0878
     31 C          62.6650   83.0047   12.7301 C.ar    1  UNL1        0.0012
     32 C          62.2721   82.4004   14.0456 C.ar    1  UNL1        0.0001
     33 C          62.1081   80.9145   14.1691 C.ar    1  UNL1        0.0007
     34 C          62.3370   80.0330   12.9772 C.ar    1  UNL1        0.0103
     35 C          62.7299   80.6374   11.6618 C.ar    1  UNL1        0.0684
     36 C          62.8939   82.1232   11.5382 C.ar    1  UNL1        0.0103
     37 C          62.9587   79.7558   10.4699 C.1     1  UNL1        0.1004
     38 N          63.1875   78.8743    9.2780 N.1     1  UNL1       -0.1908
@<TRIPOS>BOND
     1    24    25    1
     2    25    23    1
     3    23    22    1
     4    22    15    1
     5    15    16   ar
     6    16    17   ar
     7    17     1    1
     8     1     2    1
     9     3     2    1
    10     3     4    1
    11     4     5    2
    12     4     6   am
    13     6     7    1
    14     6     8    1
    15     8     9    2
    16     8    10    1
    17    10    11    1
    18    11    26    1
    19    26    27   ar
    20    27    28   ar
    21    28    31    1
    22    31    32   ar
    23    32    33   ar
    24    33    34   ar
    25    34    35   ar
    26    35    37    1
    27    37    38    3
    28    35    36   ar
    29    28    29   ar
    30    29    30   ar
    31    11    12    1
    32    17    18   ar
    33    18    19   ar
    34    19    20   ar
    35    20    21    1
    36    20    15   ar
    37    12     1    1
    38    11     3    1
    39    30    26   ar
    40    36    31   ar
    41     9    13    1
    42    10    14    1
@<TRIPOS>MOLECULE
*****
 38 42 0 0 0
SMALL
GASTEIGER

@<TRIPOS>ATOM
      1 N          62.6040   89.0189   11.3424 N.pl3   1  UNL1       -0.2739
      2 C          61.6173   89.8128   10.5386 C.3     1  UNL1        0.1079
      3 C          60.9550   88.8815    9.5670 C.3     1  UNL1        0.1498
      4 C          59.9007   89.1036    8.5233 C.2     1  UNL1        0.2919
      5 O          59.3233   90.4731    8.3200 O.2     1  UNL1       -0.2563
      6 N          59.4238   87.9562    7.6830 N.am    1  UNL1       -0.1449
      7 C          58.3695   88.1783    6.6393 C.3     1  UNL1        0.2159
      8 C          60.0011   86.5869    7.8863 C.2     1  UNL1        0.3728
      9 N          59.5242   85.4394    7.0460 N.2     1  UNL1       -0.1329
     10 N          61.0554   86.3648    8.9299 N.pl3   1  UNL1       -0.2247
     11 C          61.5323   87.5121    9.7703 C.3     1  UNL1        0.1559
     12 C          62.5515   87.5970   10.8676 C.3     1  UNL1        0.1327
     13 H          58.8323   85.5852    6.3610 H       1  UNL1        0.3058
     14 H          61.4343   85.4659    9.0634 H       1  UNL1        0.2454
     15 C          64.9481   91.4678   13.4060 C.ar    1  UNL1        0.2571
     16 N          64.0640   90.9335   12.3183 N.ar    1  UNL1       -0.1768
     17 C          63.4880   89.5531   12.4301 C.ar    1  UNL1        0.2230
     18 N          63.7961   88.7068   13.6296 N.ar    1  UNL1       -0.2095
     19 C          64.6802   89.2410   14.7173 C.ar    1  UNL1        0.1362
     20 C          65.2562   90.6215   14.6055 C.ar    1  UNL1        0.2121
     21 F          66.1402   91.1557   15.6932 F       1  UNL1       -0.1976
     22 O          65.5241   92.8482   13.2941 O.3     1  UNL1       -0.4586
     23 C          66.7011   93.0996   12.3989 C.3     1  UNL1        0.2072
     24 C          67.7525   92.2778   10.1698 C.3     1  UNL1        0.0040
     25 C          66.5888   92.8493   10.9242 C.3     1  UNL1        0.0474
     26 C          62.1989   86.2060   10.0862 C.ar    1  UNL1        0.0397
     27 C          61.9402   85.3533   11.2927 C.ar    1  UNL1        0.0057
     28 C          62.8227   84.1435   11.2032 C.ar    1  UNL1        0.0068
     29 C          63.6268   84.2487    9.9414 C.ar    1  UNL1        0.0352
     30 S          63.2413   85.5234    9.2510 S.2     1  UNL1       -0.0878
     31 C          62.8893   83.0251   12.2005 C.ar    1  UNL1        0.0012
     32 C          64.2172   82.5702   12.7297 C.ar    1  UNL1        0.0001
     33 C          64.2838   81.4518   13.7270 C.ar    1  UNL1        0.0007
     34 C          63.0226   80.7882   14.1951 C.ar    1  UNL1        0.0103
     35 C          61.6948   81.2431   13.6660 C.ar    1  UNL1        0.0684
     36 C          61.6281   82.3615   12.6687 C.ar    1  UNL1        0.0103
     37 C          60.4337   80.5795   14.1342 C.1     1  UNL1        0.1004
     38 N          59.1725   79.9159   14.6023 N.1     1  UNL1       -0.1908
@<TRIPOS>BOND
     1    24    25    1
     2    25    23    1
     3    23    22    1
     4    22    15    1
     5    15    16   ar
     6    16    17   ar
     7    17     1    1
     8     1     2    1
     9     3     2    1
    10     3     4    1
    11     4     5    2
    12     4     6   am
    13     6     7    1
    14     6     8    1
    15     8     9    2
    16     8    10    1
    17    10    11    1
    18    11    26    1
    19    26    27   ar
    20    27    28   ar
    21    28    31    1
    22    31    32   ar
    23    32    33   ar
    24    33    34   ar
    25    34    35   ar
    26    35    37    1
    27    37    38    3
    28    35    36   ar
    29    28    29   ar
    30    29    30   ar
    31    11    12    1
    32    17    18   ar
    33    18    19   ar
    34    19    20   ar
    35    20    21    1
    36    20    15   ar
    37    12     1    1
    38    11     3    1
    39    30    26   ar
    40    36    31   ar
    41     9    13    1
    42    10    14    1
@<TRIPOS>MOLECULE
*****
 38 42 0 0 0
SMALL
GASTEIGER

@<TRIPOS>ATOM
      1 N          64.2388   89.8198   14.5063 N.pl3   1  UNL1       -0.2739
      2 C          65.1790   90.9212   14.8975 C.3     1  UNL1        0.1079
      3 C          65.2892   91.8693   13.7403 C.3     1  UNL1        0.1498
      4 C          66.0710   93.1353   13.5511 C.2     1  UNL1        0.2919
      5 O          66.9431   93.6509   14.6573 O.2     1  UNL1       -0.2563
      6 N          65.9807   93.8860   12.2555 N.am    1  UNL1       -0.1449
      7 C          66.7626   95.1521   12.0662 C.3     1  UNL1        0.2159
      8 C          65.1087   93.3706   11.1493 C.2     1  UNL1        0.3728
      9 N          65.0184   94.1212    9.8537 N.2     1  UNL1       -0.1329
     10 N          64.3269   92.1045   11.3385 N.pl3   1  UNL1       -0.2247
     11 C          64.4171   91.3538   12.6340 C.3     1  UNL1        0.1559
     12 C          63.7679   90.0872   13.1075 C.3     1  UNL1        0.1327
     13 H          65.5315   94.9522    9.7294 H       1  UNL1        0.3058
     14 H          63.7545   91.7662   10.6124 H       1  UNL1        0.2454
     15 C          63.8004   86.0955   15.8053 C.ar    1  UNL1        0.2571
     16 N          64.1996   87.2599   14.9481 N.ar    1  UNL1       -0.1768
     17 C          63.8395   88.6555   15.3636 C.ar    1  UNL1        0.2230
     18 N          63.0801   88.8867   16.6363 N.ar    1  UNL1       -0.2095
     19 C          62.6809   87.7222   17.4935 C.ar    1  UNL1        0.1362
     20 C          63.0410   86.3267   17.0780 C.ar    1  UNL1        0.2121
     21 F          62.6417   85.1623   17.9352 F       1  UNL1       -0.1976
     22 O          64.1605   84.6999   15.3897 O.3     1  UNL1       -0.4586
     23 C          63.0923   83.7584   14.9183 C.3     1  UNL1        0.2072
     24 C          62.4688   82.2866   12.8701 C.3     1  UNL1        0.0040
     25 C          62.8006   83.6285   13.4527 C.3     1  UNL1        0.0474
     26 C          63.5081   90.7195   11.6235 C.ar    1  UNL1        0.0397
     27 C          63.4443   89.2586   11.2893 C.ar    1  UNL1        0.0057
     28 C          62.4000   89.0709   10.2289 C.ar    1  UNL1        0.0068
     29 C          61.8185   90.4158    9.9077 C.ar    1  UNL1        0.0352
     30 S          62.5034   91.4347   10.7696 S.2     1  UNL1       -0.0878
     31 C          62.0064   87.7672    9.6001 C.ar    1  UNL1        0.0012
     32 C          60.8064   87.6995    8.7025 C.ar    1  UNL1        0.0001
     33 C          60.4128   86.3958    8.0738 C.ar    1  UNL1        0.0007
     34 C          61.2191   85.1598    8.3425 C.ar    1  UNL1        0.0103
     35 C          62.4191   85.2276    9.2400 C.ar    1  UNL1        0.0684
     36 C          62.8127   86.5312    9.8688 C.ar    1  UNL1        0.0103
     37 C          63.2254   83.9915    9.5086 C.1     1  UNL1        0.1004
     38 N          64.0316   82.7554    9.7772 N.1     1  UNL1       -0.1908
@<TRIPOS>BOND
     1    24    25    1
     2    25    23    1
     3    23    22    1
     4    22    15    1
     5    15    16   ar
     6    16    17   ar
     7    17     1    1
     8     1     2    1
     9     3     2    1
    10     3     4    1
    11     4     5    2
    12     4     6   am
    13     6     7    1
    14     6     8    1
    15     8     9    2
    16     8    10    1
    17    10    11    1
    18    11    26    1
    19    26    27   ar
    20    27    28   ar
    21    28    31    1
    22    31    32   ar
    23    32    33   ar
    24    33    34   ar
    25    34    35   ar
    26    35    37    1
    27    37    38    3
    28    35    36   ar
    29    28    29   ar
    30    29    30   ar
    31    11    12    1
    32    17    18   ar
    33    18    19   ar
    34    19    20   ar
    35    20    21    1
    36    20    15   ar
    37    12     1    1
    38    11     3    1
    39    30    26   ar
    40    36    31   ar
    41     9    13    1
    42    10    14    1
@<TRIPOS>MOLECULE
*****
 38 42 0 0 0
SMALL
GASTEIGER

@<TRIPOS>ATOM
      1 N          63.0826   84.4237   14.3121 N.pl3   1  UNL1       -0.2739
      2 C          63.1358   83.0212   14.8416 C.3     1  UNL1        0.1079
      3 C          63.0170   82.0818   13.6782 C.3     1  UNL1        0.1498
      4 C          63.0078   80.5842   13.5945 C.2     1  UNL1        0.2919
      5 O          63.1343   79.7623   14.8429 O.2     1  UNL1       -0.2563
      6 N          62.8720   79.9084   12.2622 N.am    1  UNL1       -0.1449
      7 C          62.8627   78.4107   12.1784 C.3     1  UNL1        0.2159
      8 C          62.7454   80.7301   11.0138 C.2     1  UNL1        0.3728
      9 N          62.6096   80.0543    9.6815 N.2     1  UNL1       -0.1329
     10 N          62.7547   82.2278   11.0976 N.pl3   1  UNL1       -0.2247
     11 C          62.8905   82.9036   12.4298 C.3     1  UNL1        0.1559
     12 C          62.9310   84.3510   12.8215 C.3     1  UNL1        0.1327
     13 H          62.6036   79.0714    9.6265 H       1  UNL1        0.3058
     14 H          62.6716   82.7671   10.2781 H       1  UNL1        0.2454
     15 C          63.8733   88.1675   15.3650 C.ar    1  UNL1        0.2571
     16 N          63.7895   86.9126   14.5476 N.ar    1  UNL1       -0.1768
     17 C          63.1664   85.6785   15.1296 C.ar    1  UNL1        0.2230
     18 N          62.6269   85.6993   16.5290 N.ar    1  UNL1       -0.2095
     19 C          62.7107   86.9543   17.3465 C.ar    1  UNL1        0.1362
     20 C          63.3339   88.1883   16.7645 C.ar    1  UNL1        0.2121
     21 F          63.4176   89.4432   17.5820 F       1  UNL1       -0.1976
     22 O          64.4965   89.4015   14.7830 O.3     1  UNL1       -0.4586
     23 C          63.6808   90.3183   13.9204 C.3     1  UNL1        0.2072
     24 C          63.3394   90.8493   11.4002 C.3     1  UNL1        0.0040
     25 C          63.2668   89.8837   12.5458 C.3     1  UNL1        0.0474
     26 C          62.7734   83.8521   11.2736 C.ar    1  UNL1        0.0397
     27 C          61.7587   84.9476   11.1313 C.ar    1  UNL1        0.0057
     28 C          62.0086   85.6442    9.8265 C.ar    1  UNL1        0.0068
     29 C          63.1778   84.9791    9.1625 C.ar    1  UNL1        0.0352
     30 S          63.6504   83.8716   10.0569 S.2     1  UNL1       -0.0878
     31 C          61.2267   86.8024    9.2814 C.ar    1  UNL1        0.0012
     32 C          60.7820   86.7992    7.8488 C.ar    1  UNL1        0.0001
     33 C          60.0000   87.9575    7.3038 C.ar    1  UNL1        0.0007
     34 C          59.6628   89.1188    8.1913 C.ar    1  UNL1        0.0103
     35 C          60.1076   89.1219    9.6238 C.ar    1  UNL1        0.0684
     36 C          60.8895   87.9637   10.1689 C.ar    1  UNL1        0.0103
     37 C          59.7704   90.2833   10.5113 C.1     1  UNL1        0.1004
     38 N          59.4332   91.4446   11.3988 N.1     1  UNL1       -0.1908
@<TRIPOS>BOND
     1    24    25    1
     2    25    23    1
     3    23    22    1
     4    22    15    1
     5    15    16   ar
     6    16    17   ar
     7    17     1    1
     8     1     2    1
     9     3     2    1
    10     3     4    1
    11     4     5    2
    12     4     6   am
    13     6     7    1
    14     6     8    1
    15     8     9    2
    16     8    10    1
    17    10    11    1
    18    11    26    1
    19    26    27   ar
    20    27    28   ar
    21    28    31    1
    22    31    32   ar
    23    32    33   ar
    24    33    34   ar
    25    34    35   ar
    26    35    37    1
    27    37    38    3
    28    35    36   ar
    29    28    29   ar
    30    29    30   ar
    31    11    12    1
    32    17    18   ar
    33    18    19   ar
    34    19    20   ar
    35    20    21    1
    36    20    15   ar
    37    12     1    1
    38    11     3    1
    39    30    26   ar
    40    36    31   ar
    41     9    13    1
    42    10    14    1
