@<TRIPOS>MOLECULE
*****
 24 26 0 0 0
SMALL
GASTEIGER

@<TRIPOS>ATOM
      1 C          66.8980   94.4182   13.8337 C.3     1  UNL1        0.0512
      2 C          66.0962   93.1505   13.8196 C.2     1  UNL1        0.0551
      3 C          65.9684   92.3301   15.0688 C.2     1  UNL1        0.0470
      4 S          65.1667   91.0625   15.0548 S.3     1  UNL1       -0.0751
      5 C          64.4928   90.6151   13.7915 C.3     1  UNL1        0.2085
      6 C          64.6207   91.4355   12.5423 C.ar    1  UNL1        0.2066
      7 N          64.0732   91.2487   11.1583 N.ar    1  UNL1       -0.0545
      8 O          64.5365   92.4009   10.3171 O.2     1  UNL1       -0.2950
      9 C          65.3704   93.2999   11.1811 C.ar    1  UNL1        0.4470
     10 O          66.0354   94.5721   10.7462 O.2     1  UNL1       -0.2203
     11 N          65.4224   92.7033   12.5563 N.ar    1  UNL1       -0.2279
     12 C          64.0814   89.5056   14.7132 C.ar    1  UNL1        0.0190
     13 C          64.3814   88.0808   14.3525 C.ar    1  UNL1       -0.0002
     14 C          63.9700   86.9712   15.2741 C.ar    1  UNL1        0.0065
     15 C          63.2584   87.2863   16.5566 C.ar    1  UNL1        0.0345
     16 BR         62.8470   86.1767   17.4782 Br      1  UNL1       -0.0490
     17 C          62.9584   88.7111   16.9172 C.ar    1  UNL1        0.0065
     18 C          63.3699   89.8207   15.9955 C.ar    1  UNL1       -0.0002
     19 O          63.6761   89.7825   12.8483 O.3     1  UNL1       -0.3293
     20 C          62.2115   90.0590   12.6797 C.3     1  UNL1        0.2470
     21 C          61.3829   89.1904   11.7802 C.3     1  UNL1        0.4249
     22 F          60.5544   88.3218   10.8807 F       1  UNL1       -0.1674
     23 F          60.1744   90.0237   12.0887 F       1  UNL1       -0.1674
     24 F          62.5914   88.3571   11.4717 F       1  UNL1       -0.1674
@<TRIPOS>BOND
     1     1     2    1
     2     2     3    2
     3     3     4    1
     4     4     5    1
     5     5    19    1
     6    19    20    1
     7    20    21    1
     8    21    22    1
     9    21    23    1
    10    21    24    1
    11     5    12    1
    12    12    13   ar
    13    13    14   ar
    14    14    15   ar
    15    15    16    1
    16    15    17   ar
    17    17    18   ar
    18     5     6    1
    19     6     7   ar
    20     7     8   ar
    21     8     9   ar
    22     9    10    2
    23     9    11   ar
    24    11     2    1
    25    18    12   ar
    26    11     6   ar
@<TRIPOS>MOLECULE
*****
 24 26 0 0 0
SMALL
GASTEIGER

@<TRIPOS>ATOM
      1 C          62.0305   89.2524   12.3112 C.3     1  UNL1        0.0512
      2 C          63.0628   90.3406   12.3127 C.2     1  UNL1        0.0551
      3 C          63.4644   90.9952   11.0241 C.2     1  UNL1        0.0470
      4 S          64.4967   92.0833   11.0256 S.3     1  UNL1       -0.0751
      5 C          65.1276   92.5170   12.3155 C.3     1  UNL1        0.2085
      6 C          64.7260   91.8625   13.6040 C.ar    1  UNL1        0.2066
      7 N          65.1710   92.0775   15.0203 N.ar    1  UNL1       -0.0545
      8 O          64.4136   91.1222   15.8942 O.2     1  UNL1       -0.2950
      9 C          63.5005   90.3167   15.0180 C.ar    1  UNL1        0.4470
     10 O          62.5596   89.2424   15.4767 O.2     1  UNL1       -0.2203
     11 N          63.6937   90.7743   13.6026 N.ar    1  UNL1       -0.2279
     12 C          65.8333   93.4326   11.3596 C.ar    1  UNL1        0.0190
     13 C          65.7517   94.9187   11.5460 C.ar    1  UNL1       -0.0002
     14 C          66.4573   95.8344   10.5902 C.ar    1  UNL1        0.0065
     15 C          67.2447   95.2639    9.4479 C.ar    1  UNL1        0.0345
     16 BR         67.9503   96.1795    8.4921 Br      1  UNL1       -0.0490
     17 C          67.3262   93.7777    9.2615 C.ar    1  UNL1        0.0065
     18 C          66.6205   92.8621   10.2174 C.ar    1  UNL1       -0.0002
     19 O          66.0035   93.2687   13.2735 O.3     1  UNL1       -0.3293
     20 C          67.3552   92.7286   13.6357 C.3     1  UNL1        0.2470
     21 C          68.1153   93.3193   14.7861 C.3     1  UNL1        0.4249
     22 F          68.8753   93.9100   15.9365 F       1  UNL1       -0.1674
     23 F          67.1428   94.4600   14.8429 F       1  UNL1       -0.1674
     24 F          69.0878   92.1787   14.7293 F       1  UNL1       -0.1674
@<TRIPOS>BOND
     1     1     2    1
     2     2     3    2
     3     3     4    1
     4     4     5    1
     5     5    19    1
     6    19    20    1
     7    20    21    1
     8    21    22    1
     9    21    23    1
    10    21    24    1
    11     5    12    1
    12    12    13   ar
    13    13    14   ar
    14    14    15   ar
    15    15    16    1
    16    15    17   ar
    17    17    18   ar
    18     5     6    1
    19     6     7   ar
    20     7     8   ar
    21     8     9   ar
    22     9    10    2
    23     9    11   ar
    24    11     2    1
    25    18    12   ar
    26    11     6   ar
@<TRIPOS>MOLECULE
*****
 24 26 0 0 0
SMALL
GASTEIGER

@<TRIPOS>ATOM
      1 C          66.6850   94.3166   11.1675 C.3     1  UNL1        0.0512
      2 C          65.7095   93.2361   11.5292 C.2     1  UNL1        0.0551
      3 C          64.8591   92.6066   10.4659 C.2     1  UNL1        0.0470
      4 S          63.8837   91.5261   10.8276 S.3     1  UNL1       -0.0751
      5 C          63.7586   91.0749   12.2528 C.3     1  UNL1        0.2085
      6 C          64.6090   91.7044   13.3161 C.ar    1  UNL1        0.2066
      7 N          64.7058   91.4684   14.7942 N.ar    1  UNL1       -0.0545
      8 O          65.7410   92.4031   15.3460 O.2     1  UNL1       -0.2950
      9 C          66.2841   93.2168   14.2089 C.ar    1  UNL1        0.4470
     10 O          67.3412   94.2763   14.3088 O.2     1  UNL1       -0.2203
     11 N          65.5844   92.7850   12.9543 N.ar    1  UNL1       -0.2279
     12 C          62.7422   90.1810   11.6063 C.ar    1  UNL1        0.0190
     13 C          61.3375   90.1405   12.1307 C.ar    1  UNL1       -0.0002
     14 C          60.3210   89.2467   11.4844 C.ar    1  UNL1        0.0065
     15 C          60.7093   88.3932   10.3135 C.ar    1  UNL1        0.0345
     16 BR         59.6929   87.4994    9.6672 Br      1  UNL1       -0.0490
     17 C          62.1141   88.4337    9.7891 C.ar    1  UNL1        0.0065
     18 C          63.1305   89.3276   10.4355 C.ar    1  UNL1       -0.0002
     19 O          63.2806   90.3134   13.4533 O.3     1  UNL1       -0.3293
     20 C          63.9304   89.0134   13.8245 C.3     1  UNL1        0.2470
     21 C          63.7369   88.4436   15.1986 C.3     1  UNL1        0.4249
     22 F          63.5434   87.8739   16.5726 F       1  UNL1       -0.1674
     23 F          64.7611   87.3877   14.9049 F       1  UNL1       -0.1674
     24 F          62.7127   89.4995   15.4922 F       1  UNL1       -0.1674
@<TRIPOS>BOND
     1     1     2    1
     2     2     3    2
     3     3     4    1
     4     4     5    1
     5     5    19    1
     6    19    20    1
     7    20    21    1
     8    21    22    1
     9    21    23    1
    10    21    24    1
    11     5    12    1
    12    12    13   ar
    13    13    14   ar
    14    14    15   ar
    15    15    16    1
    16    15    17   ar
    17    17    18   ar
    18     5     6    1
    19     6     7   ar
    20     7     8   ar
    21     8     9   ar
    22     9    10    2
    23     9    11   ar
    24    11     2    1
    25    18    12   ar
    26    11     6   ar
@<TRIPOS>MOLECULE
*****
 24 26 0 0 0
SMALL
GASTEIGER

@<TRIPOS>ATOM
      1 C          65.3789   93.0499   11.8751 C.3     1  UNL1        0.0512
      2 C          64.5373   91.8123   11.7753 C.2     1  UNL1        0.0551
      3 C          63.7297   91.5522   10.5383 C.2     1  UNL1        0.0470
      4 S          62.8881   90.3147   10.4385 S.3     1  UNL1       -0.0751
      5 C          62.8540   89.3370   11.5757 C.3     1  UNL1        0.2085
      6 C          63.6617   89.5971   12.8126 C.ar    1  UNL1        0.2066
      7 N          63.8263   88.8206   14.0854 N.ar    1  UNL1       -0.0545
      8 O          64.7697   89.5783   14.9718 O.2     1  UNL1       -0.2950
      9 C          65.1881   90.8231   14.2469 C.ar    1  UNL1        0.4470
     10 O          66.1266   91.8721   14.7655 O.2     1  UNL1       -0.2203
     11 N          64.5033   90.8347   12.9124 N.ar    1  UNL1       -0.2279
     12 C          61.9222   88.6553   10.6181 C.ar    1  UNL1        0.0190
     13 C          60.4481   88.9240   10.6865 C.ar    1  UNL1       -0.0002
     14 C          59.5162   88.2424    9.7289 C.ar    1  UNL1        0.0065
     15 C          60.0584   87.2920    8.7029 C.ar    1  UNL1        0.0345
     16 BR         59.1266   86.6103    7.7454 Br      1  UNL1       -0.0490
     17 C          61.5326   87.0232    8.6345 C.ar    1  UNL1        0.0065
     18 C          62.4645   87.7049    9.5921 C.ar    1  UNL1       -0.0002
     19 O          62.4964   88.1227   12.3803 O.3     1  UNL1       -0.3293
     20 C          63.1565   86.8079   12.0877 C.3     1  UNL1        0.2470
     21 C          62.6576   85.5554   12.7451 C.3     1  UNL1        0.4249
     22 F          62.1587   84.3029   13.4026 F       1  UNL1       -0.1674
     23 F          61.4711   85.5463   11.8275 F       1  UNL1       -0.1674
     24 F          63.8441   85.5645   13.6628 F       1  UNL1       -0.1674
@<TRIPOS>BOND
     1     1     2    1
     2     2     3    2
     3     3     4    1
     4     4     5    1
     5     5    19    1
     6    19    20    1
     7    20    21    1
     8    21    22    1
     9    21    23    1
    10    21    24    1
    11     5    12    1
    12    12    13   ar
    13    13    14   ar
    14    14    15   ar
    15    15    16    1
    16    15    17   ar
    17    17    18   ar
    18     5     6    1
    19     6     7   ar
    20     7     8   ar
    21     8     9   ar
    22     9    10    2
    23     9    11   ar
    24    11     2    1
    25    18    12   ar
    26    11     6   ar
@<TRIPOS>MOLECULE
*****
 24 26 0 0 0
SMALL
GASTEIGER

@<TRIPOS>ATOM
      1 C          62.0277   88.9231   10.0664 C.3     1  UNL1        0.0512
      2 C          62.4200   87.8295   11.0152 C.2     1  UNL1        0.0551
      3 C          62.0941   86.4019   10.6903 C.2     1  UNL1        0.0470
      4 S          62.4863   85.3084   11.6390 S.3     1  UNL1       -0.0751
      5 C          63.2047   85.6424   12.9129 C.3     1  UNL1        0.2085
      6 C          63.5306   87.0700   13.2378 C.ar    1  UNL1        0.2066
      7 N          64.2253   87.6994   14.4089 N.ar    1  UNL1       -0.0545
      8 O          64.2622   89.1819   14.1838 O.2     1  UNL1       -0.2950
      9 C          63.5905   89.4688   12.8737 C.ar    1  UNL1        0.4470
     10 O          63.4037   90.8232   12.2566 O.2     1  UNL1       -0.2203
     11 N          63.1383   88.1636   12.2890 N.ar    1  UNL1       -0.2279
     12 C          63.1176   84.1509   13.0463 C.ar    1  UNL1        0.0190
     13 C          61.9588   83.5288   13.7676 C.ar    1  UNL1       -0.0002
     14 C          61.8716   82.0374   13.9011 C.ar    1  UNL1        0.0065
     15 C          62.9433   81.1678   13.3132 C.ar    1  UNL1        0.0345
     16 BR         62.8561   79.6764   13.4467 Br      1  UNL1       -0.0490
     17 C          64.1021   81.7899   12.5919 C.ar    1  UNL1        0.0065
     18 C          64.1892   83.2814   12.4585 C.ar    1  UNL1       -0.0002
     19 O          63.8927   85.4585   14.2329 O.3     1  UNL1       -0.3293
     20 C          63.1353   84.9031   15.4026 C.3     1  UNL1        0.2470
     21 C          63.0678   85.6748   16.6871 C.3     1  UNL1        0.4249
     22 F          63.0003   86.4464   17.9717 F       1  UNL1       -0.1674
     23 F          64.5662   85.7278   16.7340 F       1  UNL1       -0.1674
     24 F          61.5695   85.6218   16.6402 F       1  UNL1       -0.1674
@<TRIPOS>BOND
     1     1     2    1
     2     2     3    2
     3     3     4    1
     4     4     5    1
     5     5    19    1
     6    19    20    1
     7    20    21    1
     8    21    22    1
     9    21    23    1
    10    21    24    1
    11     5    12    1
    12    12    13   ar
    13    13    14   ar
    14    14    15   ar
    15    15    16    1
    16    15    17   ar
    17    17    18   ar
    18     5     6    1
    19     6     7   ar
    20     7     8   ar
    21     8     9   ar
    22     9    10    2
    23     9    11   ar
    24    11     2    1
    25    18    12   ar
    26    11     6   ar
@<TRIPOS>MOLECULE
*****
 24 26 0 0 0
SMALL
GASTEIGER

@<TRIPOS>ATOM
      1 C          63.5790   91.9411    9.5624 C.3     1  UNL1        0.0512
      2 C          63.8602   91.5552   10.9844 C.2     1  UNL1        0.0551
      3 C          63.2048   90.3427   11.5762 C.2     1  UNL1        0.0470
      4 S          63.4860   89.9568   12.9980 S.3     1  UNL1       -0.0751
      5 C          64.4227   90.7835   13.8284 C.3     1  UNL1        0.2085
      6 C          65.0781   91.9960   13.2366 C.ar    1  UNL1        0.2066
      7 N          66.0393   92.9964   13.8071 N.ar    1  UNL1       -0.0545
      8 O          66.3521   94.0006   12.7376 O.2     1  UNL1       -0.2950
      9 C          65.5842   93.6208   11.5062 C.ar    1  UNL1        0.4470
     10 O          65.6009   94.3517   10.1964 O.2     1  UNL1       -0.2203
     11 N          64.7969   92.3819   11.8147 N.ar    1  UNL1       -0.2279
     12 C          64.0472   89.7310   14.8291 C.ar    1  UNL1        0.0190
     13 C          64.3451   88.2881   14.5475 C.ar    1  UNL1       -0.0002
     14 C          63.9697   87.2356   15.5481 C.ar    1  UNL1        0.0065
     15 C          63.2963   87.6260   16.8304 C.ar    1  UNL1        0.0345
     16 BR         62.9209   86.5736   17.8310 Br      1  UNL1       -0.0490
     17 C          62.9984   89.0690   17.1120 C.ar    1  UNL1        0.0065
     18 C          63.3738   90.1215   16.1113 C.ar    1  UNL1       -0.0002
     19 O          65.2290   91.2446   15.0061 O.3     1  UNL1       -0.3293
     20 C          66.7147   91.0389   15.0248 C.3     1  UNL1        0.2470
     21 C          67.5937   91.9877   15.7844 C.3     1  UNL1        0.4249
     22 F          68.4728   92.9366   16.5441 F       1  UNL1       -0.1674
     23 F          66.4616   92.2859   16.7222 F       1  UNL1       -0.1674
     24 F          68.7259   91.6896   14.8467 F       1  UNL1       -0.1674
@<TRIPOS>BOND
     1     1     2    1
     2     2     3    2
     3     3     4    1
     4     4     5    1
     5     5    19    1
     6    19    20    1
     7    20    21    1
     8    21    22    1
     9    21    23    1
    10    21    24    1
    11     5    12    1
    12    12    13   ar
    13    13    14   ar
    14    14    15   ar
    15    15    16    1
    16    15    17   ar
    17    17    18   ar
    18     5     6    1
    19     6     7   ar
    20     7     8   ar
    21     8     9   ar
    22     9    10    2
    23     9    11   ar
    24    11     2    1
    25    18    12   ar
    26    11     6   ar
@<TRIPOS>MOLECULE
*****
 24 26 0 0 0
SMALL
GASTEIGER

@<TRIPOS>ATOM
      1 C          60.9879   88.7335    8.9548 C.3     1  UNL1        0.0512
      2 C          61.5130   87.8259   10.0275 C.2     1  UNL1        0.0551
      3 C          61.2224   86.3553    9.9744 C.2     1  UNL1        0.0470
      4 S          61.7475   85.4479   11.0470 S.3     1  UNL1       -0.0751
      5 C          62.5634   86.0109   12.1728 C.3     1  UNL1        0.2085
      6 C          62.8541   87.4815   12.2259 C.ar    1  UNL1        0.2066
      7 N          63.6239   88.3177   13.2047 N.ar    1  UNL1       -0.0545
      8 O          63.5746   89.7420   12.7369 O.2     1  UNL1       -0.2950
      9 C          62.7742   89.7861   11.4691 C.ar    1  UNL1        0.4470
     10 O          62.4722   91.0121   10.6593 O.2     1  UNL1       -0.2203
     11 N          62.3289   88.3890   11.1532 N.ar    1  UNL1       -0.2279
     12 C          62.5550   84.5610   12.5569 C.ar    1  UNL1        0.0190
     13 C          62.9213   83.5151   11.5459 C.ar    1  UNL1       -0.0002
     14 C          62.9130   82.0652   11.9299 C.ar    1  UNL1        0.0065
     15 C          62.5382   81.6609   13.3250 C.ar    1  UNL1        0.0345
     16 BR         62.5299   80.2110   13.7090 Br      1  UNL1       -0.0490
     17 C          62.1719   82.7067   14.3360 C.ar    1  UNL1        0.0065
     18 C          62.1803   84.1568   13.9520 C.ar    1  UNL1       -0.0002
     19 O          63.3763   86.0704   13.4319 O.3     1  UNL1       -0.3293
     20 C          64.5424   85.1450   13.6163 C.3     1  UNL1        0.2470
     21 C          65.6539   85.5165   14.5525 C.3     1  UNL1        0.4249
     22 F          66.7655   85.8880   15.4887 F       1  UNL1       -0.1674
     23 F          64.9328   86.7834   14.9060 F       1  UNL1       -0.1674
     24 F          66.3751   84.2496   14.1990 F       1  UNL1       -0.1674
@<TRIPOS>BOND
     1     1     2    1
     2     2     3    2
     3     3     4    1
     4     4     5    1
     5     5    19    1
     6    19    20    1
     7    20    21    1
     8    21    22    1
     9    21    23    1
    10    21    24    1
    11     5    12    1
    12    12    13   ar
    13    13    14   ar
    14    14    15   ar
    15    15    16    1
    16    15    17   ar
    17    17    18   ar
    18     5     6    1
    19     6     7   ar
    20     7     8   ar
    21     8     9   ar
    22     9    10    2
    23     9    11   ar
    24    11     2    1
    25    18    12   ar
    26    11     6   ar
@<TRIPOS>MOLECULE
*****
 24 26 0 0 0
SMALL
GASTEIGER

@<TRIPOS>ATOM
      1 C          63.4506   90.8388   12.4913 C.3     1  UNL1        0.0512
      2 C          63.1522   89.4901   11.9064 C.2     1  UNL1        0.0551
      3 C          62.7372   89.3708   10.4699 C.2     1  UNL1        0.0470
      4 S          62.4389   88.0222    9.8850 S.3     1  UNL1       -0.0751
      5 C          62.5555   86.7928   10.7366 C.3     1  UNL1        0.2085
      6 C          62.9705   86.9122   12.1731 C.ar    1  UNL1        0.2066
      7 N          63.1702   85.8859   13.2486 N.ar    1  UNL1       -0.0545
      8 O          63.5920   86.6003   14.4983 O.2     1  UNL1       -0.2950
      9 C          63.6530   88.0681   14.1951 C.ar    1  UNL1        0.4470
     10 O          64.0316   89.1527   15.1596 O.2     1  UNL1       -0.2203
     11 N          63.2689   88.2608   12.7580 N.ar    1  UNL1       -0.2279
     12 C          62.1297   86.1717    9.4393 C.ar    1  UNL1        0.0190
     13 C          63.1429   85.4982    8.5620 C.ar    1  UNL1       -0.0002
     14 C          62.7172   84.8771    7.2647 C.ar    1  UNL1        0.0065
     15 C          61.2781   84.9294    6.8447 C.ar    1  UNL1        0.0345
     16 BR         60.8524   84.3083    5.5475 Br      1  UNL1       -0.0490
     17 C          60.2648   85.6029    7.7221 C.ar    1  UNL1        0.0065
     18 C          60.6906   86.2240    9.0194 C.ar    1  UNL1       -0.0002
     19 O          62.5243   85.3478   11.1376 O.3     1  UNL1       -0.3293
     20 C          63.7004   84.4632   10.8473 C.3     1  UNL1        0.2470
     21 C          63.5389   82.9720   10.8617 C.3     1  UNL1        0.4249
     22 F          63.3774   81.4808   10.8762 F       1  UNL1       -0.1674
     23 F          62.3755   83.1070   11.7989 F       1  UNL1       -0.1674
     24 F          64.7023   82.8370    9.9246 F       1  UNL1       -0.1674
@<TRIPOS>BOND
     1     1     2    1
     2     2     3    2
     3     3     4    1
     4     4     5    1
     5     5    19    1
     6    19    20    1
     7    20    21    1
     8    21    22    1
     9    21    23    1
    10    21    24    1
    11     5    12    1
    12    12    13   ar
    13    13    14   ar
    14    14    15   ar
    15    15    16    1
    16    15    17   ar
    17    17    18   ar
    18     5     6    1
    19     6     7   ar
    20     7     8   ar
    21     8     9   ar
    22     9    10    2
    23     9    11   ar
    24    11     2    1
    25    18    12   ar
    26    11     6   ar
@<TRIPOS>MOLECULE
*****
 24 26 0 0 0
SMALL
GASTEIGER

@<TRIPOS>ATOM
      1 C          62.5915   79.1134   12.8069 C.3     1  UNL1        0.0512
      2 C          62.7548   80.5912   13.0055 C.2     1  UNL1        0.0551
      3 C          62.6367   81.1809   14.3797 C.2     1  UNL1        0.0470
      4 S          62.8000   82.6586   14.5783 S.3     1  UNL1       -0.0751
      5 C          63.0814   83.5468   13.4028 C.3     1  UNL1        0.2085
      6 C          63.1995   82.9572   12.0286 C.ar    1  UNL1        0.2066
      7 N          63.4694   83.5779   10.6900 N.ar    1  UNL1       -0.0545
      8 O          63.4728   82.4837    9.6640 O.2     1  UNL1       -0.2950
      9 C          63.2052   81.1867   10.3685 C.ar    1  UNL1        0.4470
     10 O          63.1212   79.8346    9.7247 O.2     1  UNL1       -0.2203
     11 N          63.0362   81.4794   11.8300 N.ar    1  UNL1       -0.2279
     12 C          63.0582   84.5680   14.5013 C.ar    1  UNL1        0.0190
     13 C          61.9323   84.5779   15.4924 C.ar    1  UNL1       -0.0002
     14 C          61.9090   85.5990   16.5909 C.ar    1  UNL1        0.0065
     15 C          63.0116   86.6103   16.6983 C.ar    1  UNL1        0.0345
     16 BR         62.9883   87.6314   17.7968 Br      1  UNL1       -0.0490
     17 C          64.1375   86.6004   15.7072 C.ar    1  UNL1        0.0065
     18 C          64.1608   85.5793   14.6087 C.ar    1  UNL1       -0.0002
     19 O          63.3547   84.7897   12.6088 O.3     1  UNL1       -0.3293
     20 C          62.2142   85.6077   12.0797 C.3     1  UNL1        0.2470
     21 C          62.4863   86.8061   11.2196 C.3     1  UNL1        0.4249
     22 F          62.7585   88.0046   10.3595 F       1  UNL1       -0.1674
     23 F          63.2595   87.4351   12.3406 F       1  UNL1       -0.1674
     24 F          61.7131   86.1772   10.0986 F       1  UNL1       -0.1674
@<TRIPOS>BOND
     1     1     2    1
     2     2     3    2
     3     3     4    1
     4     4     5    1
     5     5    19    1
     6    19    20    1
     7    20    21    1
     8    21    22    1
     9    21    23    1
    10    21    24    1
    11     5    12    1
    12    12    13   ar
    13    13    14   ar
    14    14    15   ar
    15    15    16    1
    16    15    17   ar
    17    17    18   ar
    18     5     6    1
    19     6     7   ar
    20     7     8   ar
    21     8     9   ar
    22     9    10    2
    23     9    11   ar
    24    11     2    1
    25    18    12   ar
    26    11     6   ar
