@<TRIPOS>MOLECULE
*****
 67 71 0 0 0
SMALL
GASTEIGER

@<TRIPOS>ATOM
      1 C          64.0299   95.8934   -1.3419 C.3     1  UNL1        0.2087
      2 O          63.7217   96.1813   -2.7815 O.3     1  UNL1       -0.4464
      3 C          62.8671   96.1466   -4.0137 C.2     1  UNL1        0.3537
      4 O          63.7148   96.8558   -5.0279 O.2     1  UNL1       -0.2467
      5 C          61.6353   95.7963   -4.7946 C.3     1  UNL1        0.2718
      6 C          62.6328   96.5270   -5.6436 C.3     1  UNL1        0.0548
      7 F          61.1324   95.9799   -6.1958 F       1  UNL1       -0.2210
      8 C          60.2701   95.1997   -4.9695 C.2     1  UNL1        0.1924
      9 O          59.9620   95.4875   -6.4090 O.2     1  UNL1       -0.2926
     10 C          59.0421   94.4750   -4.5037 C.3     1  UNL1        0.0904
     11 C          58.1876   94.4404   -5.7360 C.3     1  UNL1        0.0105
     12 C          58.1945   93.7658   -3.4896 C.3     1  UNL1        0.1494
     13 C          57.8950   93.2125   -2.1279 C.3     1  UNL1        0.1185
     14 C          56.7646   92.9626   -3.0817 C.3     1  UNL1        0.0322
     15 C          58.2032   92.9247   -0.6884 C.3     1  UNL1        0.0353
     16 C          59.0579   92.9594    0.5439 C.3     1  UNL1        0.0419
     17 C          58.2102   92.2501    1.5580 C.3     1  UNL1        0.0061
     18 C          60.2897   93.3096    1.3248 C.2     1  UNL1        0.0778
     19 N          59.9903   92.7564    2.6865 N.2     1  UNL1       -0.0905
     20 C          61.6548   93.9062    1.4997 C.3     1  UNL1        0.0832
     21 C          61.9629   93.6184    2.9392 C.3     1  UNL1        0.0099
     22 C          62.8828   94.6309    1.0339 C.3     1  UNL1        0.2172
     23 O          63.6385   94.5995    2.3292 O.3     1  UNL1       -0.4177
     24 C          64.9533   95.2893    2.1156 C.2     1  UNL1        0.5118
     25 O          66.0234   95.4868    3.1480 O.2     1  UNL1       -0.2028
     26 O          65.0101   95.7471    0.6882 O.3     1  UNL1       -0.4181
     27 C          63.7304   95.3401    0.0197 C.3     1  UNL1        0.2124
     28 C          64.9304   96.0699   -0.5071 C.3     1  UNL1        0.0514
     29 C          66.2555   96.7579   -2.3661 C.3     1  UNL1        0.0040
     30 C          65.3950   96.4900   -1.1671 C.3     1  UNL1        0.0474
     31 O          56.7697   92.4766   -1.4631 O.3     1  UNL1       -0.3535
     32 C          56.3465   91.1319   -1.9758 C.3     1  UNL1        0.1740
     33 O          56.9626   93.4155   -4.2705 O.3     1  UNL1       -0.3283
     34 C          55.9279   94.4650   -4.5496 C.3     1  UNL1        0.2643
     35 O          55.8294   95.0766   -5.9157 O.3     1  UNL1       -0.3311
     36 C          54.7947   96.1261   -6.1948 C.3     1  UNL1        0.1194
     37 C          54.6963   96.7376   -7.5609 C.3     1  UNL1        0.0322
     38 C          53.8585   96.5640   -5.1077 C.3     1  UNL1        0.0482
     39 C          53.9569   95.9524   -3.7416 C.3     1  UNL1        0.0921
     40 C          54.9917   94.9029   -3.4625 C.3     1  UNL1        0.1815
     41 O          55.0902   94.2914   -2.0964 O.3     1  UNL1       -0.3783
     42 H          55.8052   93.6359   -2.0864 H       1  UNL1        0.2106
     43 N          53.0208   96.3903   -2.6545 N.3     1  UNL1       -0.2692
     44 C          53.5665   96.8558   -1.3371 C.3     1  UNL1        0.0897
     45 C          51.5388   96.3628   -2.8847 C.3     1  UNL1        0.0897
     46 O          58.6872   92.0591    2.9428 O.2     1  UNL1       -0.3633
     47 C          58.1146   92.0253    4.3288 C.3     1  UNL1        0.3145
     48 C          58.7260   91.1370    5.3714 C.1     1  UNL1       -0.0364
     49 C          59.3375   90.2488    6.4141 C.1     1  UNL1       -0.0607
     50 C          59.9489   89.3605    7.4567 C.ar    1  UNL1        0.0419
     51 C          59.8343   87.8700    7.3332 C.ar    1  UNL1        0.0097
     52 C          60.4457   86.9818    8.3759 C.ar    1  UNL1        0.0179
     53 C          61.1717   87.5841    9.5422 C.ar    1  UNL1        0.0630
     54 C          61.2863   89.0746    9.6658 C.ar    1  UNL1        0.0555
     55 C          60.6749   89.9629    8.6230 C.ar    1  UNL1        0.0129
     56 C          62.0123   89.6769   10.8320 C.ar    1  UNL1        0.2028
     57 O          62.1269   91.1674   10.9555 O.2     1  UNL1       -0.2863
     58 C          62.6237   88.7887   11.8747 C.ar    1  UNL1        0.1092
     59 C          62.5091   87.2981   11.7511 C.ar    1  UNL1        0.0836
     60 N          61.7831   86.6959   10.5849 N.ar    1  UNL1       -0.3258
     61 C          63.3497   89.3909   13.0410 C.2     1  UNL1        0.2473
     62 N          63.0794   90.8112   13.4405 N.am    1  UNL1       -0.3252
     63 O          64.3461   88.5727   13.8077 O.2     1  UNL1       -0.2702
     64 H          62.4255   91.3482   12.9373 H       1  UNL1        0.1453
     65 H          63.5560   91.2065   14.2060 H       1  UNL1        0.1453
     66 C          61.6686   85.2053   10.4614 C.3     1  UNL1        0.1061
     67 C          62.8735   84.3396   10.6820 C.3     1  UNL1        0.0265
@<TRIPOS>BOND
     1    29    30    1
     2     1    30    1
     3     1     2    1
     4     2     3    1
     5     3     4    2
     6     3     5    1
     7     5     6    1
     8     5     7    1
     9     5     8    1
    10     8     9    2
    11     8    10    1
    12    10    11    1
    13    10    12    1
    14    12    33    1
    15    34    33    1
    16    34    35    1
    17    35    36    1
    18    36    37    1
    19    36    38    1
    20    38    39    1
    21    39    43    1
    22    43    44    1
    23    43    45    1
    24    39    40    1
    25    40    41    1
    26    12    13    1
    27    13    14    1
    28    13    31    1
    29    31    32    1
    30    13    15    1
    31    15    16    1
    32    16    17    1
    33    16    18    1
    34    18    19    2
    35    19    46    1
    36    46    47    1
    37    47    48    1
    38    48    49    3
    39    49    50    1
    40    50    51   ar
    41    51    52   ar
    42    52    53   ar
    43    53    54   ar
    44    54    55   ar
    45    54    56   ar
    46    56    57    2
    47    56    58   ar
    48    58    61    1
    49    61    62   am
    50    61    63    2
    51    58    59   ar
    52    59    60   ar
    53    60    66    1
    54    66    67    1
    55    18    20    1
    56    20    21    1
    57    20    22    1
    58    22    23    1
    59    23    24    1
    60    24    25    2
    61    24    26    1
    62    26    27    1
    63    27    28    1
    64    27     1    1
    65    40    34    1
    66    55    50   ar
    67    27    22    1
    68    60    53   ar
    69    41    42    1
    70    62    64    1
    71    62    65    1
