@<TRIPOS>MOLECULE
*****
 36 40 0 0 0
SMALL
GASTEIGER

@<TRIPOS>ATOM
      1 C          59.4046   89.5071    6.9734 C.ar    1  UNL1        0.0516
      2 C          60.3105   90.0956    8.0140 C.ar    1  UNL1        0.0147
      3 C          60.8923   89.2199    9.0840 C.ar    1  UNL1        0.0013
      4 C          60.5681   87.7557    9.1133 C.ar    1  UNL1        0.0007
      5 C          59.6622   87.1671    8.0726 C.ar    1  UNL1        0.0013
      6 C          59.0804   88.0428    7.0027 C.ar    1  UNL1        0.0147
      7 C          61.1498   86.8799   10.1832 C.ar    1  UNL1        0.0096
      8 C          60.9113   87.0133   11.6581 C.ar    1  UNL1        0.0355
      9 S          61.6862   85.9329   12.3525 S.2     1  UNL1       -0.0863
     10 C          62.4036   85.1318   11.3067 C.ar    1  UNL1        0.0334
     11 C          63.3160   83.9450   11.4021 C.ar    1  UNL1        0.0248
     12 C          63.8968   83.3434   10.1567 C.ar    1  UNL1        0.1005
     13 N          63.5652   83.9288    8.8160 N.ar    1  UNL1       -0.2296
     14 C          62.6529   85.1156    8.7207 C.ar    1  UNL1        0.1258
     15 N          62.3213   85.7010    7.3800 N.pl3   1  UNL1       -0.3426
     16 C          62.0721   85.7171    9.9660 C.ar    1  UNL1        0.0377
     17 H          62.7025   85.3062    6.5626 H       1  UNL1        0.1437
     18 H          61.7225   86.4799    7.3174 H       1  UNL1        0.1437
     19 C          63.6475   83.3596   12.7428 C.2     1  UNL1        0.0268
     20 C          63.2510   81.9986   13.2331 C.2     1  UNL1        0.1195
     21 N          63.7922   81.8304   14.6219 N.2     1  UNL1       -0.1510
     22 N          64.5232   83.0874   14.9900 N.2     1  UNL1       -0.1695
     23 C          64.4338   84.0326   13.8286 C.3     1  UNL1        0.1772
     24 N          59.1423   91.9175    3.8316 N.am    1  UNL1       -0.2681
     25 C          59.7240   91.0417    4.9016 C.2     1  UNL1        0.3082
     26 O          61.2067   90.8250    4.9696 O.2     1  UNL1       -0.2522
     27 N          58.8229   90.3828    5.9035 N.am    1  UNL1       -0.2681
     28 H          58.1691   92.0597    3.7870 H       1  UNL1        0.1564
     29 H          57.8498   90.5251    5.8588 H       1  UNL1        0.1564
     30 C          63.9153   92.8603    2.0071 C.3     1  UNL1        0.0311
     31 C          62.4298   93.0479    1.9174 C.ar    1  UNL1       -0.0206
     32 C          61.8453   93.8945    0.8258 C.ar    1  UNL1       -0.0042
     33 C          60.3598   94.0821    0.7361 C.ar    1  UNL1        0.0010
     34 C          59.4589   93.4231    1.7380 C.ar    1  UNL1        0.0147
     35 C          60.0434   92.5765    2.8296 C.ar    1  UNL1        0.0513
     36 C          61.5289   92.3889    2.9193 C.ar    1  UNL1        0.0105
@<TRIPOS>BOND
     1    30    31    1
     2    31    32   ar
     3    32    33   ar
     4    33    34   ar
     5    34    35   ar
     6    35    24    1
     7    24    25   am
     8    25    26    2
     9    25    27   am
    10    27     1    1
    11     1     2   ar
    12     2     3   ar
    13     3     4   ar
    14     4     7    1
    15     7     8   ar
    16     8     9   ar
    17     9    10   ar
    18    10    11   ar
    19    11    19    1
    20    19    20    2
    21    20    21    1
    22    21    22    2
    23    22    23    1
    24    11    12   ar
    25    12    13   ar
    26    13    14   ar
    27    14    15    1
    28    14    16   ar
    29     4     5   ar
    30     5     6   ar
    31    35    36   ar
    32    36    31   ar
    33     6     1   ar
    34    16     7   ar
    35    16    10   ar
    36    23    19    1
    37    24    28    1
    38    27    29    1
    39    15    17    1
    40    15    18    1
@<TRIPOS>MOLECULE
*****
 36 40 0 0 0
SMALL
GASTEIGER

@<TRIPOS>ATOM
      1 C          59.4651   89.7380    6.9581 C.ar    1  UNL1        0.0516
      2 C          59.3784   88.2544    6.7551 C.ar    1  UNL1        0.0147
      3 C          59.9983   87.3230    7.7543 C.ar    1  UNL1        0.0013
      4 C          60.7049   87.8754    8.9566 C.ar    1  UNL1        0.0007
      5 C          60.7916   89.3591    9.1596 C.ar    1  UNL1        0.0013
      6 C          60.1717   90.2904    8.1604 C.ar    1  UNL1        0.0147
      7 C          61.3248   86.9442    9.9558 C.ar    1  UNL1        0.0096
      8 C          61.2213   85.4478    9.9490 C.ar    1  UNL1        0.0355
      9 S          61.9896   84.9247   11.1263 S.2     1  UNL1       -0.0863
     10 C          62.5680   86.0977   11.8607 C.ar    1  UNL1        0.0334
     11 C          63.4156   86.1906   13.0947 C.ar    1  UNL1        0.0248
     12 C          63.8525   87.5317   13.6054 C.ar    1  UNL1        0.1005
     13 N          63.4416   88.7799   12.8820 N.ar    1  UNL1       -0.2296
     14 C          62.5939   88.6869   11.6479 C.ar    1  UNL1        0.1258
     15 N          62.1830   89.9351   10.9245 N.pl3   1  UNL1       -0.3426
     16 C          62.1571   87.3459   11.1373 C.ar    1  UNL1        0.0377
     17 H          62.4697   90.8153   11.2597 H       1  UNL1        0.1437
     18 H          61.6267   89.8741   10.1146 H       1  UNL1        0.1437
     19 C          63.8265   84.9425   13.8181 C.2     1  UNL1        0.0268
     20 C          63.6693   84.6824   15.2870 C.2     1  UNL1        0.1195
     21 N          64.2123   83.3145   15.5764 N.2     1  UNL1       -0.1510
     22 N          64.7052   82.7290   14.2863 N.2     1  UNL1       -0.1695
     23 C          64.4668   83.7352   13.1996 C.3     1  UNL1        0.1772
     24 N          59.0489   92.1451    3.8305 N.am    1  UNL1       -0.2681
     25 C          59.6688   91.2139    4.8297 C.2     1  UNL1        0.3082
     26 O          61.1123   90.8273    4.6998 O.2     1  UNL1       -0.2522
     27 N          58.8452   90.6693    5.9589 N.am    1  UNL1       -0.2681
     28 H          58.1015   92.3988    3.9158 H       1  UNL1        0.1564
     29 H          57.8978   90.9230    6.0441 H       1  UNL1        0.1564
     30 C          63.6829   93.3640    1.8205 C.3     1  UNL1        0.0311
     31 C          62.1895   93.2993    1.6963 C.ar    1  UNL1       -0.0206
     32 C          61.5196   93.7792    0.4429 C.ar    1  UNL1       -0.0042
     33 C          60.0262   93.7144    0.3187 C.ar    1  UNL1        0.0010
     34 C          59.2027   93.1697    1.4479 C.ar    1  UNL1        0.0147
     35 C          59.8725   92.6898    2.7013 C.ar    1  UNL1        0.0513
     36 C          61.3660   92.7546    2.8255 C.ar    1  UNL1        0.0105
@<TRIPOS>BOND
     1    30    31    1
     2    31    32   ar
     3    32    33   ar
     4    33    34   ar
     5    34    35   ar
     6    35    24    1
     7    24    25   am
     8    25    26    2
     9    25    27   am
    10    27     1    1
    11     1     2   ar
    12     2     3   ar
    13     3     4   ar
    14     4     7    1
    15     7     8   ar
    16     8     9   ar
    17     9    10   ar
    18    10    11   ar
    19    11    19    1
    20    19    20    2
    21    20    21    1
    22    21    22    2
    23    22    23    1
    24    11    12   ar
    25    12    13   ar
    26    13    14   ar
    27    14    15    1
    28    14    16   ar
    29     4     5   ar
    30     5     6   ar
    31    35    36   ar
    32    36    31   ar
    33     6     1   ar
    34    16     7   ar
    35    16    10   ar
    36    23    19    1
    37    24    28    1
    38    27    29    1
    39    15    17    1
    40    15    18    1
@<TRIPOS>MOLECULE
*****
 36 40 0 0 0
SMALL
GASTEIGER

@<TRIPOS>ATOM
      1 C          63.6638   90.7897   12.1882 C.ar    1  UNL1        0.0516
      2 C          64.2133   89.9439   13.2984 C.ar    1  UNL1        0.0147
      3 C          63.9760   88.4627   13.3010 C.ar    1  UNL1        0.0013
      4 C          63.1891   87.8274   12.1932 C.ar    1  UNL1        0.0007
      5 C          62.6395   88.6732   11.0830 C.ar    1  UNL1        0.0013
      6 C          62.8769   90.1544   11.0805 C.ar    1  UNL1        0.0147
      7 C          62.9517   86.3463   12.1957 C.ar    1  UNL1        0.0096
      8 C          62.3685   85.5450   11.0698 C.ar    1  UNL1        0.0355
      9 S          62.3122   84.1100   11.5028 S.2     1  UNL1       -0.0863
     10 C          62.8607   84.0244   12.8963 C.ar    1  UNL1        0.0334
     11 C          63.0513   82.8665   13.8306 C.ar    1  UNL1        0.0248
     12 C          63.6371   83.0907   15.1932 C.ar    1  UNL1        0.1005
     13 N          64.0324   84.4729   15.6214 N.ar    1  UNL1       -0.2296
     14 C          63.8417   85.6308   14.6871 C.ar    1  UNL1        0.1258
     15 N          64.2370   87.0130   15.1153 N.pl3   1  UNL1       -0.3426
     16 C          63.2559   85.4066   13.3246 C.ar    1  UNL1        0.0377
     17 H          64.6215   87.1602   16.0096 H       1  UNL1        0.1437
     18 H          64.1119   87.7730   14.5021 H       1  UNL1        0.1437
     19 C          62.6560   81.4843   13.4023 C.2     1  UNL1        0.0268
     20 C          63.0198   80.8254   12.1048 C.2     1  UNL1        0.1195
     21 N          62.4162   79.4522   12.0970 N.2     1  UNL1       -0.1510
     22 N          61.6794   79.2624   13.3897 N.2     1  UNL1       -0.1695
     23 C          61.8276   80.5183   14.1965 C.3     1  UNL1        0.1772
     24 N          64.9777   94.3751   11.1075 N.am    1  UNL1       -0.2681
     25 C          64.7403   92.8940   11.1100 C.2     1  UNL1        0.3082
     26 O          65.3421   92.0361   10.0367 O.2     1  UNL1       -0.2522
     27 N          63.9012   92.2708   12.1858 N.am    1  UNL1       -0.2681
     28 H          64.5827   94.9381   11.8120 H       1  UNL1        0.1564
     29 H          63.5062   92.8338   12.8902 H       1  UNL1        0.1564
     30 C          65.3453   96.8451    6.5508 C.3     1  UNL1        0.0311
     31 C          66.0007   96.2334    7.7534 C.ar    1  UNL1       -0.0206
     32 C          67.4953   96.2449    7.8801 C.ar    1  UNL1       -0.0042
     33 C          68.1507   95.6331    9.0827 C.ar    1  UNL1        0.0010
     34 C          67.3115   95.0099   10.1584 C.ar    1  UNL1        0.0147
     35 C          65.8169   94.9984   10.0317 C.ar    1  UNL1        0.0513
     36 C          65.1615   95.6101    8.8291 C.ar    1  UNL1        0.0105
@<TRIPOS>BOND
     1    30    31    1
     2    31    32   ar
     3    32    33   ar
     4    33    34   ar
     5    34    35   ar
     6    35    24    1
     7    24    25   am
     8    25    26    2
     9    25    27   am
    10    27     1    1
    11     1     2   ar
    12     2     3   ar
    13     3     4   ar
    14     4     7    1
    15     7     8   ar
    16     8     9   ar
    17     9    10   ar
    18    10    11   ar
    19    11    19    1
    20    19    20    2
    21    20    21    1
    22    21    22    2
    23    22    23    1
    24    11    12   ar
    25    12    13   ar
    26    13    14   ar
    27    14    15    1
    28    14    16   ar
    29     4     5   ar
    30     5     6   ar
    31    35    36   ar
    32    36    31   ar
    33     6     1   ar
    34    16     7   ar
    35    16    10   ar
    36    23    19    1
    37    24    28    1
    38    27    29    1
    39    15    17    1
    40    15    18    1
