@<TRIPOS>MOLECULE
*****
 32 35 0 0 0
SMALL
GASTEIGER

@<TRIPOS>ATOM
      1 C          59.8971   87.2432    9.8645 C.3     1  UNL1        0.0177
      2 C          61.0237   86.9186   10.8002 C.3     1  UNL1        0.0622
      3 C          61.3697   85.4880   11.0895 C.3     1  UNL1        0.0384
      4 C          62.4962   85.1633   12.0252 C.2     1  UNL1       -0.0343
      5 C          63.2769   86.2692   12.6714 C.2     1  UNL1       -0.0106
      6 C          64.4034   85.9445   13.6070 C.2     1  UNL1       -0.0020
      7 C          64.7494   84.5139   13.8964 C.2     1  UNL1        0.0169
      8 C          63.9688   83.4081   13.2502 C.2     1  UNL1        0.0896
      9 N          64.0783   81.9150   13.3434 N.2     1  UNL1       -0.1520
     10 N          63.0194   81.3169   12.4653 N.2     1  UNL1       -0.1507
     11 C          62.2554   82.4403   11.8295 C.2     1  UNL1        0.1054
     12 C          62.8422   83.7328   12.3145 C.3     1  UNL1        0.1032
     13 C          62.9308   87.6998   12.3820 C.3     1  UNL1        0.1068
     14 N          61.8043   88.0245   11.4464 N.3     1  UNL1       -0.2655
     15 C          63.7115   88.8057   13.0282 C.ar    1  UNL1        0.0512
     16 C          64.1430   89.9920   12.2180 C.ar    1  UNL1        0.1399
     17 F          63.7939   90.0724   10.7614 F       1  UNL1       -0.2044
     18 C          64.9236   91.0979   12.8642 C.ar    1  UNL1        0.0295
     19 C          65.2727   91.0174   14.3209 C.ar    1  UNL1        0.0045
     20 C          64.8412   89.8312   15.1311 C.ar    1  UNL1        0.0295
     21 C          64.0606   88.7253   14.4848 C.ar    1  UNL1        0.1399
     22 F          63.6291   87.5391   15.2951 F       1  UNL1       -0.2044
     23 C          66.0534   92.1233   14.9671 C.2     1  UNL1        0.0013
     24 C          67.5487   92.1516   14.8531 C.2     1  UNL1        0.0151
     25 C          68.3294   93.2575   15.4994 C.2     1  UNL1        0.0729
     26 O          67.7098   94.0707   16.5970 O.co2   1  UNL1       -0.5446
     27 O          69.7296   93.5501   15.0479 O.co2   1  UNL1       -0.5446
     28 C          61.4583   89.4551   11.1570 C.3     1  UNL1        0.1054
     29 C          60.0732   89.9617   11.4301 C.3     1  UNL1        0.1486
     30 C          60.1897   89.5116   12.8562 C.3     1  UNL1        0.0368
     31 C          59.9566   90.4119   10.0040 C.3     1  UNL1        0.0368
     32 F          58.6880   90.4684   11.7032 F       1  UNL1       -0.2386
@<TRIPOS>UNITY_ATOM_ATTR
26 1
charge -1
@<TRIPOS>BOND
     1     2     1    1
     2     2     3    1
     3     3     4    1
     4     4     5    2
     5     5     6    1
     6     6     7    2
     7     7     8    1
     8     8     9    2
     9     9    10    1
    10    10    11    2
    11    11    12    1
    12     5    13    1
    13    13    15    1
    14    15    16   ar
    15    16    17    1
    16    16    18   ar
    17    18    19   ar
    18    19    23    1
    19    23    24    2
    20    24    25    1
    21    25    26   ar
    22    25    27   ar
    23    19    20   ar
    24    20    21   ar
    25    21    22    1
    26    13    14    1
    27    14    28    1
    28    28    29    1
    29    29    30    1
    30    29    31    1
    31    29    32    1
    32    14     2    1
    33    12     4    1
    34    21    15   ar
    35    12     8    1
@<TRIPOS>MOLECULE
*****
 32 35 0 0 0
SMALL
GASTEIGER

@<TRIPOS>ATOM
      1 C          59.9042   87.3165    9.8571 C.3     1  UNL1        0.0177
      2 C          61.0266   86.9810   10.7940 C.3     1  UNL1        0.0622
      3 C          61.3624   85.5471   11.0788 C.3     1  UNL1        0.0384
      4 C          62.4847   85.2115   12.0158 C.2     1  UNL1       -0.0343
      5 C          63.2712   86.3097   12.6679 C.2     1  UNL1       -0.0106
      6 C          64.3934   85.9742   13.6047 C.2     1  UNL1       -0.0020
      7 C          64.7293   84.5402   13.8896 C.2     1  UNL1        0.0169
      8 C          63.9429   83.4419   13.2375 C.2     1  UNL1        0.0896
      9 N          64.0423   81.9478   13.3254 N.2     1  UNL1       -0.1520
     10 N          62.9814   81.3600   12.4427 N.2     1  UNL1       -0.1507
     11 C          62.2264   82.4908   11.8094 C.2     1  UNL1        0.1054
     12 C          62.8206   83.7776   12.3006 C.3     1  UNL1        0.1032
     13 C          62.9352   87.7437   12.3830 C.3     1  UNL1        0.1068
     14 N          61.8130   88.0792   11.4461 N.3     1  UNL1       -0.2655
     15 C          63.7217   88.8420   13.0351 C.ar    1  UNL1        0.0512
     16 C          64.0929   88.7398   14.4849 C.ar    1  UNL1        0.1399
     17 F          63.6776   87.5392   15.2825 F       1  UNL1       -0.2044
     18 C          64.8793   89.8381   15.1370 C.ar    1  UNL1        0.0295
     19 C          65.2946   91.0386   14.3393 C.ar    1  UNL1        0.0045
     20 C          64.9234   91.1409   12.8896 C.ar    1  UNL1        0.0295
     21 C          64.1369   90.0425   12.2375 C.ar    1  UNL1        0.1399
     22 F          63.7657   90.1448   10.7877 F       1  UNL1       -0.2044
     23 C          66.0810   92.1369   14.9914 C.2     1  UNL1        0.0013
     24 C          67.5746   92.1715   14.8570 C.2     1  UNL1        0.0151
     25 C          68.3610   93.2698   15.5091 C.2     1  UNL1        0.0729
     26 O          67.7399   94.0914   16.5996 O.co2   1  UNL1       -0.5446
     27 O          69.7687   93.5464   15.0707 O.co2   1  UNL1       -0.5446
     28 C          61.4771   89.5132   11.1613 C.3     1  UNL1        0.1054
     29 C          60.0903   90.0238   11.4178 C.3     1  UNL1        0.1486
     30 C          59.9832   90.4531    9.9845 C.3     1  UNL1        0.0368
     31 C          60.1972   89.5947   12.8510 C.3     1  UNL1        0.0368
     32 F          58.7034   90.5346   11.6742 F       1  UNL1       -0.2386
@<TRIPOS>UNITY_ATOM_ATTR
26 1
charge -1
@<TRIPOS>BOND
     1     2     1    1
     2     2     3    1
     3     3     4    1
     4     4     5    2
     5     5     6    1
     6     6     7    2
     7     7     8    1
     8     8     9    2
     9     9    10    1
    10    10    11    2
    11    11    12    1
    12     5    13    1
    13    13    15    1
    14    15    16   ar
    15    16    17    1
    16    16    18   ar
    17    18    19   ar
    18    19    23    1
    19    23    24    2
    20    24    25    1
    21    25    26   ar
    22    25    27   ar
    23    19    20   ar
    24    20    21   ar
    25    21    22    1
    26    13    14    1
    27    14    28    1
    28    28    29    1
    29    29    30    1
    30    29    31    1
    31    29    32    1
    32    14     2    1
    33    12     4    1
    34    21    15   ar
    35    12     8    1
@<TRIPOS>MOLECULE
*****
 32 35 0 0 0
SMALL
GASTEIGER

@<TRIPOS>ATOM
      1 C          64.5935   88.2142   14.5769 C.3     1  UNL1        0.0177
      2 C          63.7797   87.5925   13.4809 C.3     1  UNL1        0.0622
      3 C          62.9685   88.4600   12.5648 C.3     1  UNL1        0.0384
      4 C          62.1546   87.8384   11.4688 C.2     1  UNL1       -0.0343
      5 C          62.1521   86.3492   11.2888 C.2     1  UNL1       -0.0106
      6 C          61.3383   85.7276   10.1929 C.2     1  UNL1       -0.0020
      7 C          60.5270   86.5951    9.2767 C.2     1  UNL1        0.0169
      8 C          60.5295   88.0843    9.4566 C.2     1  UNL1        0.0896
      9 N          59.8340   89.1862    8.7137 N.2     1  UNL1       -0.1520
     10 N          60.2179   90.4888    9.3506 N.2     1  UNL1       -0.1507
     11 C          61.1508   90.1920   10.4871 C.2     1  UNL1        0.1054
     12 C          61.3434   88.7059   10.5527 C.3     1  UNL1        0.1032
     13 C          62.9634   85.4817   12.2050 C.3     1  UNL1        0.1068
     14 N          63.7772   86.1033   13.3009 N.3     1  UNL1       -0.2655
     15 C          62.9609   83.9926   12.0250 C.ar    1  UNL1        0.0512
     16 C          63.7273   83.3723   10.8945 C.ar    1  UNL1        0.1399
     17 F          64.4963   84.2413    9.9440 F       1  UNL1       -0.2044
     18 C          63.7247   81.8831   10.7146 C.ar    1  UNL1        0.0295
     19 C          62.9557   81.0142   11.6652 C.ar    1  UNL1        0.0045
     20 C          62.1893   81.6343   12.7956 C.ar    1  UNL1        0.0295
     21 C          62.1919   83.1236   12.9756 C.ar    1  UNL1        0.1399
     22 F          61.4254   83.7438   14.1060 F       1  UNL1       -0.2044
     23 C          62.9531   79.5250   11.4853 C.2     1  UNL1        0.0013
     24 C          63.3954   78.9262   10.1831 C.2     1  UNL1        0.0151
     25 C          63.3929   77.4370   10.0031 C.2     1  UNL1        0.0729
     26 O          62.3137   76.6073   10.6332 O.co2   1  UNL1       -0.5446
     27 O          64.4696   76.7777    9.1931 O.co2   1  UNL1       -0.5446
     28 C          64.5885   85.2358   14.2171 C.3     1  UNL1        0.1054
     29 C          63.9222   84.5102   15.3481 C.3     1  UNL1        0.1486
     30 C          64.6126   83.2422   14.9414 C.3     1  UNL1        0.0368
     31 C          63.2317   85.7781   15.7549 C.3     1  UNL1        0.0368
     32 F          63.2558   83.7844   16.4792 F       1  UNL1       -0.2386
@<TRIPOS>UNITY_ATOM_ATTR
26 1
charge -1
@<TRIPOS>BOND
     1     2     1    1
     2     2     3    1
     3     3     4    1
     4     4     5    2
     5     5     6    1
     6     6     7    2
     7     7     8    1
     8     8     9    2
     9     9    10    1
    10    10    11    2
    11    11    12    1
    12     5    13    1
    13    13    15    1
    14    15    16   ar
    15    16    17    1
    16    16    18   ar
    17    18    19   ar
    18    19    23    1
    19    23    24    2
    20    24    25    1
    21    25    26   ar
    22    25    27   ar
    23    19    20   ar
    24    20    21   ar
    25    21    22    1
    26    13    14    1
    27    14    28    1
    28    28    29    1
    29    29    30    1
    30    29    31    1
    31    29    32    1
    32    14     2    1
    33    12     4    1
    34    21    15   ar
    35    12     8    1
@<TRIPOS>MOLECULE
*****
 32 35 0 0 0
SMALL
GASTEIGER

@<TRIPOS>ATOM
      1 C          60.1337   86.4905    9.7260 C.3     1  UNL1        0.0177
      2 C          61.1989   86.7118   10.7587 C.3     1  UNL1        0.0622
      3 C          61.6092   85.5895   11.6653 C.3     1  UNL1        0.0384
      4 C          62.6744   85.8107   12.6980 C.2     1  UNL1       -0.0343
      5 C          63.3293   87.1542   12.8241 C.2     1  UNL1       -0.0106
      6 C          64.3944   87.3754   13.8568 C.2     1  UNL1       -0.0020
      7 C          64.8048   86.2531   14.7634 C.2     1  UNL1        0.0169
      8 C          64.1499   84.9095   14.6373 C.2     1  UNL1        0.0896
      9 N          64.3448   83.6238   15.3850 N.2     1  UNL1       -0.1520
     10 N          63.4001   82.6080   14.8144 N.2     1  UNL1       -0.1507
     11 C          62.6213   83.2659   13.7141 C.2     1  UNL1        0.1054
     12 C          63.0847   84.6883   13.6046 C.3     1  UNL1        0.1032
     13 C          62.9189   88.2766   11.9175 C.3     1  UNL1        0.1068
     14 N          61.8538   88.0554   10.8849 N.3     1  UNL1       -0.2655
     15 C          63.5738   89.6202   12.0436 C.ar    1  UNL1        0.0512
     16 C          63.8663   90.1876   13.4010 C.ar    1  UNL1        0.1399
     17 F          63.5040   89.4114   14.6323 F       1  UNL1       -0.2044
     18 C          64.5212   91.5312   13.5271 C.ar    1  UNL1        0.0295
     19 C          64.8836   92.3074   12.2957 C.ar    1  UNL1        0.0045
     20 C          64.5911   91.7401   10.9384 C.ar    1  UNL1        0.0295
     21 C          63.9361   90.3964   10.8123 C.ar    1  UNL1        0.1399
     22 F          63.6436   89.8291    9.4549 F       1  UNL1       -0.2044
     23 C          65.5384   93.6510   12.4219 C.2     1  UNL1        0.0013
     24 C          65.6783   94.5332   11.2168 C.2     1  UNL1        0.0151
     25 C          66.3332   95.8768   11.3429 C.2     1  UNL1        0.0729
     26 O          67.2529   96.3671   10.2642 O.co2   1  UNL1       -0.5446
     27 O          66.0683   96.7300   12.5479 O.co2   1  UNL1       -0.5446
     28 C          61.4434   89.1778    9.9782 C.3     1  UNL1        0.1054
     29 C          60.2029   89.9668   10.2755 C.3     1  UNL1        0.1486
     30 C          60.4895   89.8639   11.7443 C.3     1  UNL1        0.0368
     31 C          59.9163   90.0697    8.8068 C.3     1  UNL1        0.0368
     32 F          58.9623   90.7558   10.5729 F       1  UNL1       -0.2386
@<TRIPOS>UNITY_ATOM_ATTR
26 1
charge -1
@<TRIPOS>BOND
     1     2     1    1
     2     2     3    1
     3     3     4    1
     4     4     5    2
     5     5     6    1
     6     6     7    2
     7     7     8    1
     8     8     9    2
     9     9    10    1
    10    10    11    2
    11    11    12    1
    12     5    13    1
    13    13    15    1
    14    15    16   ar
    15    16    17    1
    16    16    18   ar
    17    18    19   ar
    18    19    23    1
    19    23    24    2
    20    24    25    1
    21    25    26   ar
    22    25    27   ar
    23    19    20   ar
    24    20    21   ar
    25    21    22    1
    26    13    14    1
    27    14    28    1
    28    28    29    1
    29    29    30    1
    30    29    31    1
    31    29    32    1
    32    14     2    1
    33    12     4    1
    34    21    15   ar
    35    12     8    1
@<TRIPOS>MOLECULE
*****
 32 35 0 0 0
SMALL
GASTEIGER

@<TRIPOS>ATOM
      1 C          63.7708   85.3421   14.0564 C.3     1  UNL1        0.0177
      2 C          63.6390   86.7169   13.4711 C.3     1  UNL1        0.0622
      3 C          64.4247   87.8565   14.0490 C.3     1  UNL1        0.0384
      4 C          64.2929   89.2314   13.4638 C.2     1  UNL1       -0.0343
      5 C          63.3756   89.4666   12.3005 C.2     1  UNL1       -0.0106
      6 C          63.2438   90.8413   11.7153 C.2     1  UNL1       -0.0020
      7 C          64.0295   91.9810   12.2932 C.2     1  UNL1        0.0169
      8 C          64.9468   91.7458   13.4564 C.2     1  UNL1        0.0896
      9 N          65.8412   92.6673   14.2316 N.2     1  UNL1       -0.1520
     10 N          66.5257   91.8620   15.2960 N.2     1  UNL1       -0.1507
     11 C          66.0544   90.4428   15.1786 C.2     1  UNL1        0.1054
     12 C          65.0786   90.3710   14.0417 C.3     1  UNL1        0.1032
     13 C          62.5899   88.3268   11.7226 C.3     1  UNL1        0.1068
     14 N          62.7217   86.9521   12.3079 N.3     1  UNL1       -0.2655
     15 C          61.6726   88.5620   10.5594 C.ar    1  UNL1        0.0512
     16 C          61.9702   87.9334    9.2303 C.ar    1  UNL1        0.1399
     17 F          63.1852   87.0696    9.0646 F       1  UNL1       -0.2044
     18 C          61.0528   88.1686    8.0671 C.ar    1  UNL1        0.0295
     19 C          59.8377   89.0325    8.2330 C.ar    1  UNL1        0.0045
     20 C          59.5401   89.6611    9.5619 C.ar    1  UNL1        0.0295
     21 C          60.4576   89.4259   10.7252 C.ar    1  UNL1        0.1399
     22 F          60.1599   90.0545   12.0542 F       1  UNL1       -0.2044
     23 C          58.9204   89.2677    7.0697 C.2     1  UNL1        0.0013
     24 C          58.8062   90.6377    6.4697 C.2     1  UNL1        0.0151
     25 C          57.8888   90.8729    5.3065 C.2     1  UNL1        0.0729
     26 O          56.4680   90.3952    5.3632 O.co2   1  UNL1       -0.5446
     27 O          58.3923   91.5858    4.0865 O.co2   1  UNL1       -0.5446
     28 C          61.9360   85.8124   11.7299 C.3     1  UNL1        0.1054
     29 C          62.5686   84.4595   11.5915 C.3     1  UNL1        0.1486
     30 C          62.0125   84.0628   12.9269 C.3     1  UNL1        0.0368
     31 C          63.1247   84.8560   10.2561 C.3     1  UNL1        0.0368
     32 F          63.2011   83.1064   11.4531 F       1  UNL1       -0.2386
@<TRIPOS>UNITY_ATOM_ATTR
26 1
charge -1
@<TRIPOS>BOND
     1     2     1    1
     2     2     3    1
     3     3     4    1
     4     4     5    2
     5     5     6    1
     6     6     7    2
     7     7     8    1
     8     8     9    2
     9     9    10    1
    10    10    11    2
    11    11    12    1
    12     5    13    1
    13    13    15    1
    14    15    16   ar
    15    16    17    1
    16    16    18   ar
    17    18    19   ar
    18    19    23    1
    19    23    24    2
    20    24    25    1
    21    25    26   ar
    22    25    27   ar
    23    19    20   ar
    24    20    21   ar
    25    21    22    1
    26    13    14    1
    27    14    28    1
    28    28    29    1
    29    29    30    1
    30    29    31    1
    31    29    32    1
    32    14     2    1
    33    12     4    1
    34    21    15   ar
    35    12     8    1
@<TRIPOS>MOLECULE
*****
 32 35 0 0 0
SMALL
GASTEIGER

@<TRIPOS>ATOM
      1 C          63.5150   84.0984   14.9218 C.3     1  UNL1        0.0177
      2 C          63.3640   85.2255   13.9436 C.3     1  UNL1        0.0622
      3 C          63.6590   86.6330   14.3699 C.3     1  UNL1        0.0384
      4 C          63.5080   87.7602   13.3917 C.2     1  UNL1       -0.0343
      5 C          63.0620   87.4797   11.9873 C.2     1  UNL1       -0.0106
      6 C          62.9110   88.6068   11.0092 C.2     1  UNL1       -0.0020
      7 C          63.2060   90.0144   11.4355 C.2     1  UNL1        0.0169
      8 C          63.6520   90.2949   12.8399 C.2     1  UNL1        0.0896
      9 N          64.0122   91.5701   13.5428 N.2     1  UNL1       -0.1520
     10 N          64.3858   91.2310   14.9554 N.2     1  UNL1       -0.1507
     11 C          64.2565   89.7463   15.1255 C.2     1  UNL1        0.1054
     12 C          63.8030   89.1677   13.8180 C.3     1  UNL1        0.1032
     13 C          62.7670   86.0721   11.5611 C.3     1  UNL1        0.1068
     14 N          62.9180   84.9450   12.5392 N.3     1  UNL1       -0.2655
     15 C          62.3210   85.7917   10.1567 C.ar    1  UNL1        0.0512
     16 C          60.9979   86.3068    9.6728 C.ar    1  UNL1        0.1399
     17 F          60.1207   87.1023   10.5935 F       1  UNL1       -0.2044
     18 C          60.5519   86.0263    8.2684 C.ar    1  UNL1        0.0295
     19 C          61.4291   85.2307    7.3477 C.ar    1  UNL1        0.0045
     20 C          62.7522   84.7157    7.8314 C.ar    1  UNL1        0.0295
     21 C          63.1981   84.9961    9.2359 C.ar    1  UNL1        0.1399
     22 F          64.5213   84.4810    9.7197 F       1  UNL1       -0.2044
     23 C          60.9831   84.9503    5.9433 C.2     1  UNL1        0.0013
     24 C          62.0001   84.7626    4.8568 C.2     1  UNL1        0.0151
     25 C          61.5541   84.4822    3.4524 C.2     1  UNL1        0.0729
     26 O          60.2794   83.7309    3.2061 O.co2   1  UNL1       -0.5446
     27 O          62.3830   84.9530    2.2942 O.co2   1  UNL1       -0.5446
     28 C          62.6230   83.5374   12.1129 C.3     1  UNL1        0.1054
     29 C          63.4524   82.4045   12.6407 C.3     1  UNL1        0.1486
     30 C          64.6685   82.9901   11.9864 C.3     1  UNL1        0.0368
     31 C          62.2363   81.8189   13.2949 C.3     1  UNL1        0.0368
     32 F          64.2819   81.2716   13.1684 F       1  UNL1       -0.2386
@<TRIPOS>UNITY_ATOM_ATTR
26 1
charge -1
@<TRIPOS>BOND
     1     2     1    1
     2     2     3    1
     3     3     4    1
     4     4     5    2
     5     5     6    1
     6     6     7    2
     7     7     8    1
     8     8     9    2
     9     9    10    1
    10    10    11    2
    11    11    12    1
    12     5    13    1
    13    13    15    1
    14    15    16   ar
    15    16    17    1
    16    16    18   ar
    17    18    19   ar
    18    19    23    1
    19    23    24    2
    20    24    25    1
    21    25    26   ar
    22    25    27   ar
    23    19    20   ar
    24    20    21   ar
    25    21    22    1
    26    13    14    1
    27    14    28    1
    28    28    29    1
    29    29    30    1
    30    29    31    1
    31    29    32    1
    32    14     2    1
    33    12     4    1
    34    21    15   ar
    35    12     8    1
@<TRIPOS>MOLECULE
*****
 32 35 0 0 0
SMALL
GASTEIGER

@<TRIPOS>ATOM
      1 C          63.5557   84.1157   14.8994 C.3     1  UNL1        0.0177
      2 C          63.3907   85.2341   13.9135 C.3     1  UNL1        0.0622
      3 C          63.6752   86.6474   14.3281 C.3     1  UNL1        0.0384
      4 C          63.5102   87.7658   13.3423 C.2     1  UNL1       -0.0343
      5 C          63.0607   87.4711   11.9419 C.2     1  UNL1       -0.0106
      6 C          62.8958   88.5895   10.9562 C.2     1  UNL1       -0.0020
      7 C          63.1803   90.0028   11.3707 C.2     1  UNL1        0.0169
      8 C          63.6298   90.2975   12.7711 C.2     1  UNL1        0.0896
      9 N          63.9819   91.5810   13.4630 N.2     1  UNL1       -0.1520
     10 N          64.3644   91.2557   14.8764 N.2     1  UNL1       -0.1507
     11 C          64.2488   89.7712   15.0581 C.2     1  UNL1        0.1054
     12 C          63.7948   89.1790   13.7569 C.3     1  UNL1        0.1032
     13 C          62.7762   86.0578   11.5274 C.3     1  UNL1        0.1068
     14 N          62.9412   84.9394   12.5132 N.3     1  UNL1       -0.2655
     15 C          62.3267   85.7631   10.1270 C.ar    1  UNL1        0.0512
     16 C          63.2093   84.9735    9.2064 C.ar    1  UNL1        0.1399
     17 F          64.5415   84.4785    9.6863 F       1  UNL1       -0.2044
     18 C          62.7598   84.6787    7.8061 C.ar    1  UNL1        0.0295
     19 C          61.4276   85.1737    7.3262 C.ar    1  UNL1        0.0045
     20 C          60.5449   85.9633    8.2467 C.ar    1  UNL1        0.0295
     21 C          60.9945   86.2580    9.6472 C.ar    1  UNL1        0.1399
     22 F          60.1118   87.0477   10.5677 F       1  UNL1       -0.2044
     23 C          60.9781   84.8790    5.9259 C.2     1  UNL1        0.0013
     24 C          61.9842   84.8004    4.8161 C.2     1  UNL1        0.0151
     25 C          61.5347   84.5057    3.4158 C.2     1  UNL1        0.0729
     26 O          62.3411   84.9968    2.2502 O.co2   1  UNL1       -0.5446
     27 O          60.2787   83.7198    3.1810 O.co2   1  UNL1       -0.5446
     28 C          62.6566   83.5261   12.0986 C.3     1  UNL1        0.1054
     29 C          63.4936   82.4038   12.6367 C.3     1  UNL1        0.1486
     30 C          62.2821   81.8180   13.2994 C.3     1  UNL1        0.0368
     31 C          64.7051   82.9895   11.9741 C.3     1  UNL1        0.0368
     32 F          64.3306   81.2813   13.1748 F       1  UNL1       -0.2386
@<TRIPOS>UNITY_ATOM_ATTR
26 1
charge -1
@<TRIPOS>BOND
     1     2     1    1
     2     2     3    1
     3     3     4    1
     4     4     5    2
     5     5     6    1
     6     6     7    2
     7     7     8    1
     8     8     9    2
     9     9    10    1
    10    10    11    2
    11    11    12    1
    12     5    13    1
    13    13    15    1
    14    15    16   ar
    15    16    17    1
    16    16    18   ar
    17    18    19   ar
    18    19    23    1
    19    23    24    2
    20    24    25    1
    21    25    26   ar
    22    25    27   ar
    23    19    20   ar
    24    20    21   ar
    25    21    22    1
    26    13    14    1
    27    14    28    1
    28    28    29    1
    29    29    30    1
    30    29    31    1
    31    29    32    1
    32    14     2    1
    33    12     4    1
    34    21    15   ar
    35    12     8    1
@<TRIPOS>MOLECULE
*****
 32 35 0 0 0
SMALL
GASTEIGER

@<TRIPOS>ATOM
      1 C          62.5542   83.8695   12.3095 C.3     1  UNL1        0.0177
      2 C          62.3771   85.3092   11.9275 C.3     1  UNL1        0.0622
      3 C          61.4374   85.6808   10.8189 C.3     1  UNL1        0.0384
      4 C          61.2603   87.1205   10.4367 C.2     1  UNL1       -0.0343
      5 C          62.0228   88.1886   11.1632 C.2     1  UNL1       -0.0106
      6 C          61.8457   89.6281   10.7811 C.2     1  UNL1       -0.0020
      7 C          60.9060   89.9998    9.6724 C.2     1  UNL1        0.0169
      8 C          60.1435   88.9317    8.9460 C.2     1  UNL1        0.0896
      9 N          59.1541   88.9942    7.8203 N.2     1  UNL1       -0.1520
     10 N          58.7198   87.5931    7.5067 N.2     1  UNL1       -0.1507
     11 C          59.4407   86.6647    8.4386 C.2     1  UNL1        0.1054
     12 C          60.3207   87.4920    9.3281 C.3     1  UNL1        0.1032
     13 C          62.9625   87.8169   12.2718 C.3     1  UNL1        0.1068
     14 N          63.1396   86.3773   12.6539 N.3     1  UNL1       -0.2655
     15 C          63.7250   88.8850   12.9983 C.ar    1  UNL1        0.0512
     16 C          64.2827   90.0544   12.2423 C.ar    1  UNL1        0.1399
     17 F          64.0779   90.1557   10.7598 F       1  UNL1       -0.2044
     18 C          65.0452   91.1225   12.9688 C.ar    1  UNL1        0.0295
     19 C          65.2500   91.0212   14.4513 C.ar    1  UNL1        0.0045
     20 C          64.6923   89.8519   15.2073 C.ar    1  UNL1        0.0295
     21 C          63.9298   88.7837   14.4808 C.ar    1  UNL1        0.1399
     22 F          63.3721   87.6144   15.2368 F       1  UNL1       -0.2044
     23 C          66.0125   92.0893   15.1778 C.2     1  UNL1        0.0013
     24 C          67.5115   92.1075   15.1261 C.2     1  UNL1        0.0151
     25 C          68.2740   93.1756   15.8526 C.2     1  UNL1        0.0729
     26 O          67.8611   94.6118   15.7230 O.co2   1  UNL1       -0.5446
     27 O          69.4494   92.8074   16.7087 O.co2   1  UNL1       -0.5446
     28 C          64.0793   86.0057   13.7626 C.3     1  UNL1        0.1054
     29 C          63.9555   84.6705   14.4346 C.3     1  UNL1        0.1486
     30 C          62.6731   85.1119   15.0755 C.3     1  UNL1        0.0368
     31 C          65.2379   84.2290   13.7939 C.3     1  UNL1        0.0368
     32 F          63.8317   83.3352   15.1068 F       1  UNL1       -0.2386
@<TRIPOS>UNITY_ATOM_ATTR
26 1
charge -1
@<TRIPOS>BOND
     1     2     1    1
     2     2     3    1
     3     3     4    1
     4     4     5    2
     5     5     6    1
     6     6     7    2
     7     7     8    1
     8     8     9    2
     9     9    10    1
    10    10    11    2
    11    11    12    1
    12     5    13    1
    13    13    15    1
    14    15    16   ar
    15    16    17    1
    16    16    18   ar
    17    18    19   ar
    18    19    23    1
    19    23    24    2
    20    24    25    1
    21    25    26   ar
    22    25    27   ar
    23    19    20   ar
    24    20    21   ar
    25    21    22    1
    26    13    14    1
    27    14    28    1
    28    28    29    1
    29    29    30    1
    30    29    31    1
    31    29    32    1
    32    14     2    1
    33    12     4    1
    34    21    15   ar
    35    12     8    1
@<TRIPOS>MOLECULE
*****
 32 35 0 0 0
SMALL
GASTEIGER

@<TRIPOS>ATOM
      1 C          63.5301   86.0771   16.7729 C.3     1  UNL1        0.0177
      2 C          63.5720   86.9448   15.5500 C.3     1  UNL1        0.0622
      3 C          64.1034   88.3445   15.6414 C.3     1  UNL1        0.0384
      4 C          64.1453   89.2122   14.4186 C.2     1  UNL1       -0.0343
      5 C          63.6558   88.6802   13.1043 C.2     1  UNL1       -0.0106
      6 C          63.6977   89.5478   11.8815 C.2     1  UNL1       -0.0020
      7 C          64.2291   90.9476   11.9729 C.2     1  UNL1        0.0169
      8 C          64.7186   91.4796   13.2871 C.2     1  UNL1        0.0896
      9 N          65.2921   92.8085   13.6811 N.2     1  UNL1       -0.1520
     10 N          65.6046   92.7621   15.1474 N.2     1  UNL1       -0.1507
     11 C          65.2243   91.4045   15.6597 C.2     1  UNL1        0.1054
     12 C          64.6767   90.6119   14.5100 C.3     1  UNL1        0.1032
     13 C          63.1244   87.2804   13.0130 C.3     1  UNL1        0.1068
     14 N          63.0825   86.4127   14.2357 N.3     1  UNL1       -0.2655
     15 C          62.6349   86.7483   11.6987 C.ar    1  UNL1        0.0512
     16 C          63.2789   85.5363   11.0934 C.ar    1  UNL1        0.1399
     17 F          64.4124   84.8564   11.8024 F       1  UNL1       -0.2044
     18 C          62.7894   85.0043    9.7791 C.ar    1  UNL1        0.0295
     19 C          61.6558   85.6843    9.0701 C.ar    1  UNL1        0.0045
     20 C          61.0119   86.8962    9.6753 C.ar    1  UNL1        0.0295
     21 C          61.5014   87.4283   10.9896 C.ar    1  UNL1        0.1399
     22 F          60.8573   88.6403   11.5949 F       1  UNL1       -0.2044
     23 C          61.1664   85.1523    7.7558 C.2     1  UNL1        0.0013
     24 C          62.1475   84.7973    6.6781 C.2     1  UNL1        0.0151
     25 C          61.6580   84.2652    5.3639 C.2     1  UNL1        0.0729
     26 O          60.5624   83.2413    5.3304 O.co2   1  UNL1       -0.5446
     27 O          62.2643   84.7572    4.0830 O.co2   1  UNL1       -0.5446
     28 C          62.5511   85.0129   14.1444 C.3     1  UNL1        0.1054
     29 C          63.3896   83.8604   14.6117 C.3     1  UNL1        0.1486
     30 C          62.1461   83.0952   14.9558 C.3     1  UNL1        0.0368
     31 C          64.6330   84.6254   14.2677 C.3     1  UNL1        0.0368
     32 F          64.2281   82.7078   15.0791 F       1  UNL1       -0.2386
@<TRIPOS>UNITY_ATOM_ATTR
26 1
charge -1
@<TRIPOS>BOND
     1     2     1    1
     2     2     3    1
     3     3     4    1
     4     4     5    2
     5     5     6    1
     6     6     7    2
     7     7     8    1
     8     8     9    2
     9     9    10    1
    10    10    11    2
    11    11    12    1
    12     5    13    1
    13    13    15    1
    14    15    16   ar
    15    16    17    1
    16    16    18   ar
    17    18    19   ar
    18    19    23    1
    19    23    24    2
    20    24    25    1
    21    25    26   ar
    22    25    27   ar
    23    19    20   ar
    24    20    21   ar
    25    21    22    1
    26    13    14    1
    27    14    28    1
    28    28    29    1
    29    29    30    1
    30    29    31    1
    31    29    32    1
    32    14     2    1
    33    12     4    1
    34    21    15   ar
    35    12     8    1
