@<TRIPOS>MOLECULE
*****
 26 30 0 0 0
SMALL
GASTEIGER

@<TRIPOS>ATOM
      1 C          62.7694   90.3041   12.0559 C.ar    1  UNL1        0.1357
      2 C          63.1911   91.1099   10.8631 C.ar    1  UNL1        0.0402
      3 C          64.4258   91.9590   10.9301 C.ar    1  UNL1        0.0065
      4 C          65.2388   92.0022   12.1899 C.ar    1  UNL1        0.0361
      5 C          66.4736   92.8514   12.2568 C.ar    1  UNL1        0.1637
      6 N          67.2867   92.8946   13.5166 N.ar    1  UNL1       -0.2250
      7 C          66.8650   92.0887   14.7094 C.ar    1  UNL1        0.1006
      8 C          65.6303   91.2397   14.6424 C.ar    1  UNL1        0.0209
      9 C          64.8172   91.1964   13.3827 C.ar    1  UNL1        0.0079
     10 C          63.5825   90.3474   13.3157 C.ar    1  UNL1        0.0403
     11 N          66.8952   93.6572   11.0640 N.ar    1  UNL1       -0.2107
     12 C          66.4901   95.0706   10.7669 C.ar    1  UNL1        0.1037
     13 C          67.1405   95.4781    9.4782 C.ar    1  UNL1        0.0432
     14 C          67.9476   94.3165    8.9787 C.ar    1  UNL1        0.1222
     15 N          67.7960   93.1912    9.9588 N.ar    1  UNL1       -0.1621
     16 N          61.5347   89.4550   11.9890 N.pl3   1  UNL1       -0.1958
     17 H          60.7197   89.7328   12.4664 H       1  UNL1        0.2986
     18 C          59.6248   86.9012    7.3557 C.2     1  UNL1        0.0010
     19 C          59.3403   88.3068    7.7958 C.2     1  UNL1        0.0950
     20 N          59.9370   88.8292    9.0690 N.2     1  UNL1       -0.2354
     21 C          60.8181   87.9463    9.9021 C.2     1  UNL1        0.1834
     22 C          61.5416   88.1826   11.1947 C.2     1  UNL1        0.3707
     23 N          62.2732   86.9232   11.5534 N.2     1  UNL1        0.0819
     24 N          62.0018   85.9085   10.4826 N.2     1  UNL1       -0.0365
     25 C          61.1025   86.5408    9.4620 C.2     1  UNL1        0.1346
     26 C          60.5059   86.0184    8.1888 C.3     1  UNL1        0.0792
@<TRIPOS>BOND
     1    18    19    2
     2    19    20    1
     3    20    21    2
     4    21    22    1
     5    22    16    1
     6    16     1    1
     7     1     2   ar
     8     2     3   ar
     9     3     4   ar
    10     4     5   ar
    11     5    11    1
    12    11    12   ar
    13    12    13   ar
    14    13    14   ar
    15    14    15   ar
    16     5     6   ar
    17     6     7   ar
    18     7     8   ar
    19     8     9   ar
    20     9    10   ar
    21    22    23    2
    22    23    24    1
    23    24    25    2
    24    25    26    1
    25    26    18    1
    26    25    21    1
    27    10     1   ar
    28     9     4   ar
    29    15    11   ar
    30    16    17    1
@<TRIPOS>MOLECULE
*****
 26 30 0 0 0
SMALL
GASTEIGER

@<TRIPOS>ATOM
      1 C          62.8647   90.0995   11.8840 C.ar    1  UNL1        0.1357
      2 C          63.2352   90.9722   10.7216 C.ar    1  UNL1        0.0402
      3 C          64.3588   91.9573   10.8515 C.ar    1  UNL1        0.0065
      4 C          65.1121   92.0697   12.1438 C.ar    1  UNL1        0.0361
      5 C          66.2358   93.0549   12.2737 C.ar    1  UNL1        0.1637
      6 N          66.9890   93.1673   13.5660 N.ar    1  UNL1       -0.2250
      7 C          66.6185   92.2946   14.7284 C.ar    1  UNL1        0.1006
      8 C          65.4948   91.3095   14.5985 C.ar    1  UNL1        0.0209
      9 C          64.7416   91.1971   13.3062 C.ar    1  UNL1        0.0079
     10 C          63.6180   90.2120   13.1763 C.ar    1  UNL1        0.0403
     11 N          66.6062   93.9276   11.1114 N.ar    1  UNL1       -0.2107
     12 C          65.9720   95.2398   10.7567 C.ar    1  UNL1        0.1037
     13 C          66.6497   95.7646    9.5257 C.ar    1  UNL1        0.0432
     14 C          67.7028   94.7766    9.1195 C.ar    1  UNL1        0.1222
     15 N          67.6759   93.6413   10.0995 N.ar    1  UNL1       -0.1621
     16 N          61.7410   89.1144   11.7541 N.pl3   1  UNL1       -0.1958
     17 H          60.8826   89.2845   12.2051 H       1  UNL1        0.2986
     18 C          63.4702   83.7627   11.8289 C.2     1  UNL1        0.0010
     19 C          63.4624   84.7264   12.9784 C.2     1  UNL1        0.0950
     20 N          62.9632   86.1268   12.7795 N.2     1  UNL1       -0.2354
     21 C          62.4716   86.5635   11.4312 C.2     1  UNL1        0.1834
     22 C          61.9252   87.8701   10.9369 C.2     1  UNL1        0.3707
     23 N          61.5953   87.7138    9.4820 N.2     1  UNL1        0.0819
     24 N          61.9378   86.3107    9.0771 N.2     1  UNL1       -0.0365
     25 C          62.4794   85.5998   10.2818 C.2     1  UNL1        0.1346
     26 C          62.9787   84.1994   10.4807 C.3     1  UNL1        0.0792
@<TRIPOS>BOND
     1    18    19    2
     2    19    20    1
     3    20    21    2
     4    21    22    1
     5    22    16    1
     6    16     1    1
     7     1     2   ar
     8     2     3   ar
     9     3     4   ar
    10     4     5   ar
    11     5    11    1
    12    11    12   ar
    13    12    13   ar
    14    13    14   ar
    15    14    15   ar
    16     5     6   ar
    17     6     7   ar
    18     7     8   ar
    19     8     9   ar
    20     9    10   ar
    21    22    23    2
    22    23    24    1
    23    24    25    2
    24    25    26    1
    25    26    18    1
    26    25    21    1
    27    10     1   ar
    28     9     4   ar
    29    15    11   ar
    30    16    17    1
@<TRIPOS>MOLECULE
*****
 26 30 0 0 0
SMALL
GASTEIGER

@<TRIPOS>ATOM
      1 C          62.9517   89.8423   12.1255 C.ar    1  UNL1        0.1357
      2 C          63.7282   89.7864   13.4076 C.ar    1  UNL1        0.0402
      3 C          64.8471   90.7556   13.6495 C.ar    1  UNL1        0.0065
      4 C          65.1894   91.7808   12.6095 C.ar    1  UNL1        0.0361
      5 C          66.3083   92.7501   12.8515 C.ar    1  UNL1        0.1637
      6 N          66.6506   93.7753   11.8114 N.ar    1  UNL1       -0.2250
      7 C          65.8740   93.8313   10.5293 C.ar    1  UNL1        0.1006
      8 C          64.7551   92.8620   10.2873 C.ar    1  UNL1        0.0209
      9 C          64.4128   91.8368   11.3274 C.ar    1  UNL1        0.0079
     10 C          63.2940   90.8675   11.0854 C.ar    1  UNL1        0.0403
     11 N          67.0849   92.6942   14.1336 N.ar    1  UNL1       -0.2107
     12 C          66.5223   92.8667   15.5134 C.ar    1  UNL1        0.1037
     13 C          67.6501   92.7350   16.4935 C.ar    1  UNL1        0.0432
     14 C          68.9097   92.4812   15.7196 C.ar    1  UNL1        0.1222
     15 N          68.5604   92.4559   14.2610 N.ar    1  UNL1       -0.1621
     16 N          61.8327   88.8730   11.8834 N.pl3   1  UNL1       -0.1958
     17 H          60.9470   89.0341   12.2820 H       1  UNL1        0.2986
     18 C          63.5116   83.5048   11.8730 C.2     1  UNL1        0.0010
     19 C          63.4320   84.4249   13.0551 C.2     1  UNL1        0.0950
     20 N          62.9583   85.8368   12.8759 N.2     1  UNL1       -0.2354
     21 C          62.5643   86.3287   11.5147 C.2     1  UNL1        0.1834
     22 C          62.0632   87.6583   11.0341 C.2     1  UNL1        0.3707
     23 N          61.8332   87.5600    9.5551 N.2     1  UNL1        0.0819
     24 N          62.1920   86.1696    9.1216 N.2     1  UNL1       -0.0365
     25 C          62.6439   85.4086   10.3327 C.2     1  UNL1        0.1346
     26 C          63.1175   83.9967   10.5119 C.3     1  UNL1        0.0792
@<TRIPOS>BOND
     1    18    19    2
     2    19    20    1
     3    20    21    2
     4    21    22    1
     5    22    16    1
     6    16     1    1
     7     1     2   ar
     8     2     3   ar
     9     3     4   ar
    10     4     5   ar
    11     5    11    1
    12    11    12   ar
    13    12    13   ar
    14    13    14   ar
    15    14    15   ar
    16     5     6   ar
    17     6     7   ar
    18     7     8   ar
    19     8     9   ar
    20     9    10   ar
    21    22    23    2
    22    23    24    1
    23    24    25    2
    24    25    26    1
    25    26    18    1
    26    25    21    1
    27    10     1   ar
    28     9     4   ar
    29    15    11   ar
    30    16    17    1
@<TRIPOS>MOLECULE
*****
 26 30 0 0 0
SMALL
GASTEIGER

@<TRIPOS>ATOM
      1 C          62.7780   90.1597   12.2815 C.ar    1  UNL1        0.1357
      2 C          63.5359   90.1334   13.5757 C.ar    1  UNL1        0.0402
      3 C          64.7562   90.9885   13.7476 C.ar    1  UNL1        0.0065
      4 C          65.2186   91.8699   12.6254 C.ar    1  UNL1        0.0361
      5 C          66.4390   92.7251   12.7974 C.ar    1  UNL1        0.1637
      6 N          66.9013   93.6065   11.6752 N.ar    1  UNL1       -0.2250
      7 C          66.1433   93.6327   10.3810 C.ar    1  UNL1        0.1006
      8 C          64.9231   92.7776   10.2091 C.ar    1  UNL1        0.0209
      9 C          64.4607   91.8962   11.3313 C.ar    1  UNL1        0.0079
     10 C          63.2404   91.0411   11.1593 C.ar    1  UNL1        0.0403
     11 N          67.1969   92.6988   14.0915 N.ar    1  UNL1       -0.2107
     12 C          66.6225   92.9467   15.4548 C.ar    1  UNL1        0.1037
     13 C          67.7328   92.8211   16.4555 C.ar    1  UNL1        0.0432
     14 C          68.9935   92.4955   15.7106 C.ar    1  UNL1        0.1222
     15 N          68.6622   92.4199   14.2496 N.ar    1  UNL1       -0.1621
     16 N          61.5576   89.3045   12.1095 N.pl3   1  UNL1       -0.1958
     17 H          60.7137   89.5570   12.5492 H       1  UNL1        0.2986
     18 C          59.7209   86.8199    7.4096 C.2     1  UNL1        0.0010
     19 C          59.3652   88.1899    7.9063 C.2     1  UNL1        0.0950
     20 N          59.9517   88.6978    9.1900 N.2     1  UNL1       -0.2354
     21 C          60.8937   87.8359    9.9772 C.2     1  UNL1        0.1834
     22 C          61.6231   88.0648   11.2677 C.2     1  UNL1        0.3707
     23 N          62.4295   86.8363   11.5687 N.2     1  UNL1        0.0819
     24 N          62.1985   85.8481   10.4641 N.2     1  UNL1       -0.0365
     25 C          61.2493   86.4659    9.4805 C.2     1  UNL1        0.1346
     26 C          60.6629   85.9579    8.1967 C.3     1  UNL1        0.0792
@<TRIPOS>BOND
     1    18    19    2
     2    19    20    1
     3    20    21    2
     4    21    22    1
     5    22    16    1
     6    16     1    1
     7     1     2   ar
     8     2     3   ar
     9     3     4   ar
    10     4     5   ar
    11     5    11    1
    12    11    12   ar
    13    12    13   ar
    14    13    14   ar
    15    14    15   ar
    16     5     6   ar
    17     6     7   ar
    18     7     8   ar
    19     8     9   ar
    20     9    10   ar
    21    22    23    2
    22    23    24    1
    23    24    25    2
    24    25    26    1
    25    26    18    1
    26    25    21    1
    27    10     1   ar
    28     9     4   ar
    29    15    11   ar
    30    16    17    1
@<TRIPOS>MOLECULE
*****
 26 30 0 0 0
SMALL
GASTEIGER

@<TRIPOS>ATOM
      1 C          63.2989   90.2193   12.0751 C.ar    1  UNL1        0.1357
      2 C          63.7573   89.2395   13.1142 C.ar    1  UNL1        0.0402
      3 C          63.4533   87.7794   12.9540 C.ar    1  UNL1        0.0065
      4 C          62.6910   87.2992   11.7547 C.ar    1  UNL1        0.0361
      5 C          62.3870   85.8390   11.5946 C.ar    1  UNL1        0.1637
      6 N          61.6247   85.3588   10.3953 N.ar    1  UNL1       -0.2250
      7 C          61.1663   86.3388    9.3562 C.ar    1  UNL1        0.1006
      8 C          61.4703   87.7988    9.5164 C.ar    1  UNL1        0.0209
      9 C          62.2326   88.2790   10.7157 C.ar    1  UNL1        0.0079
     10 C          62.5366   89.7391   10.8759 C.ar    1  UNL1        0.0403
     11 N          62.8454   84.8591   12.6336 N.ar    1  UNL1       -0.2107
     12 C          63.9638   83.8712   12.4814 C.ar    1  UNL1        0.1037
     13 C          64.0754   83.0966   13.7610 C.ar    1  UNL1        0.0432
     14 C          63.0260   83.6058   14.7042 C.ar    1  UNL1        0.1222
     15 N          62.2658   84.6951   14.0074 N.ar    1  UNL1       -0.1621
     16 N          63.6029   91.6795   12.2353 N.pl3   1  UNL1       -0.1958
     17 H          62.8764   92.3420   12.1843 H       1  UNL1        0.2986
     18 C          67.4554   92.9029   16.1466 C.2     1  UNL1        0.0010
     19 C          66.0439   92.4509   16.3781 C.2     1  UNL1        0.0950
     20 N          65.1465   92.1665   15.2103 N.2     1  UNL1       -0.2354
     21 C          65.6604   92.3341   13.8111 C.2     1  UNL1        0.1834
     22 C          65.0136   92.1302   12.4731 C.2     1  UNL1        0.3707
     23 N          66.0254   92.4562   11.4147 N.2     1  UNL1        0.0819
     24 N          67.2974   92.8616   12.0986 N.2     1  UNL1       -0.0365
     25 C          67.0718   92.7860   13.5796 C.2     1  UNL1        0.1346
     26 C          67.9692   93.0705   14.7474 C.3     1  UNL1        0.0792
@<TRIPOS>BOND
     1    18    19    2
     2    19    20    1
     3    20    21    2
     4    21    22    1
     5    22    16    1
     6    16     1    1
     7     1     2   ar
     8     2     3   ar
     9     3     4   ar
    10     4     5   ar
    11     5    11    1
    12    11    12   ar
    13    12    13   ar
    14    13    14   ar
    15    14    15   ar
    16     5     6   ar
    17     6     7   ar
    18     7     8   ar
    19     8     9   ar
    20     9    10   ar
    21    22    23    2
    22    23    24    1
    23    24    25    2
    24    25    26    1
    25    26    18    1
    26    25    21    1
    27    10     1   ar
    28     9     4   ar
    29    15    11   ar
    30    16    17    1
@<TRIPOS>MOLECULE
*****
 26 30 0 0 0
SMALL
GASTEIGER

@<TRIPOS>ATOM
      1 C          62.7735   90.1355   12.4788 C.ar    1  UNL1        0.1357
      2 C          63.5441   90.1503   13.7656 C.ar    1  UNL1        0.0402
      3 C          64.7715   91.0028   13.8949 C.ar    1  UNL1        0.0065
      4 C          65.2281   91.8405   12.7374 C.ar    1  UNL1        0.0361
      5 C          66.4555   92.6931   12.8667 C.ar    1  UNL1        0.1637
      6 N          66.9122   93.5308   11.7093 N.ar    1  UNL1       -0.2250
      7 C          66.1414   93.5159   10.4225 C.ar    1  UNL1        0.1006
      8 C          64.9141   92.6634   10.2932 C.ar    1  UNL1        0.0209
      9 C          64.4574   91.8257   11.4507 C.ar    1  UNL1        0.0079
     10 C          63.2301   90.9732   11.3214 C.ar    1  UNL1        0.0403
     11 N          67.2262   92.7080   14.1535 N.ar    1  UNL1       -0.2107
     12 C          66.6536   92.9324   15.5216 C.ar    1  UNL1        0.1037
     13 C          67.7783   92.8641   16.5117 C.ar    1  UNL1        0.0432
     14 C          69.0461   92.5975   15.7555 C.ar    1  UNL1        0.1222
     15 N          68.7049   92.5010   14.2981 N.ar    1  UNL1       -0.1621
     16 N          61.5460   89.2829   12.3495 N.pl3   1  UNL1       -0.1958
     17 H          61.0699   88.9799   13.1562 H       1  UNL1        0.2986
     18 C          61.8246   85.4266    8.2644 C.2     1  UNL1        0.0010
     19 C          62.5643   85.4163    9.5694 C.2     1  UNL1        0.0950
     20 N          62.3696   86.5340   10.5506 N.2     1  UNL1       -0.2354
     21 C          61.4354   87.6621   10.2269 C.2     1  UNL1        0.1834
     22 C          61.0441   88.8920   10.9911 C.2     1  UNL1        0.3707
     23 N          60.0627   89.6625   10.1585 N.2     1  UNL1        0.0819
     24 N          59.8474   88.9087    8.8796 N.2     1  UNL1       -0.0365
     25 C          60.6958   87.6724    8.9219 C.2     1  UNL1        0.1346
     26 C          60.8905   86.5546    7.9408 C.3     1  UNL1        0.0792
@<TRIPOS>BOND
     1    18    19    2
     2    19    20    1
     3    20    21    2
     4    21    22    1
     5    22    16    1
     6    16     1    1
     7     1     2   ar
     8     2     3   ar
     9     3     4   ar
    10     4     5   ar
    11     5    11    1
    12    11    12   ar
    13    12    13   ar
    14    13    14   ar
    15    14    15   ar
    16     5     6   ar
    17     6     7   ar
    18     7     8   ar
    19     8     9   ar
    20     9    10   ar
    21    22    23    2
    22    23    24    1
    23    24    25    2
    24    25    26    1
    25    26    18    1
    26    25    21    1
    27    10     1   ar
    28     9     4   ar
    29    15    11   ar
    30    16    17    1
@<TRIPOS>MOLECULE
*****
 26 30 0 0 0
SMALL
GASTEIGER

@<TRIPOS>ATOM
      1 C          63.2606   90.3278   11.9574 C.ar    1  UNL1        0.1357
      2 C          62.6257   90.1106   10.6158 C.ar    1  UNL1        0.0402
      3 C          62.2741   88.7228   10.1684 C.ar    1  UNL1        0.0065
      4 C          62.5573   87.5522   11.0625 C.ar    1  UNL1        0.0361
      5 C          62.2057   86.1643   10.6150 C.ar    1  UNL1        0.1637
      6 N          62.4889   84.9937   11.5091 N.ar    1  UNL1       -0.2250
      7 C          63.1238   85.2109   12.8507 C.ar    1  UNL1        0.1006
      8 C          63.4754   86.5987   13.2981 C.ar    1  UNL1        0.0209
      9 C          63.1922   87.7694   12.4040 C.ar    1  UNL1        0.0079
     10 C          63.5438   89.1572   12.8514 C.ar    1  UNL1        0.0403
     11 N          61.5708   85.9471    9.2735 N.ar    1  UNL1       -0.2107
     12 C          62.2293   85.3283    8.0762 C.ar    1  UNL1        0.1037
     13 C          61.2315   85.3093    6.9564 C.ar    1  UNL1        0.0432
     14 C          59.9562   85.9164    7.4616 C.ar    1  UNL1        0.1222
     15 N          60.1659   86.3105    8.8936 N.ar    1  UNL1       -0.1621
     16 N          63.6122   91.7157   12.4049 N.pl3   1  UNL1       -0.1958
     17 H          62.8995   92.3718   12.5804 H       1  UNL1        0.2986
     18 C          67.6427   92.8670   16.1554 C.2     1  UNL1        0.0010
     19 C          66.2194   92.4916   16.4443 C.2     1  UNL1        0.0950
     20 N          65.2722   92.2163   15.3142 N.2     1  UNL1       -0.2354
     21 C          65.7483   92.3163   13.8953 C.2     1  UNL1        0.1834
     22 C          65.0498   92.1040   12.5849 C.2     1  UNL1        0.3707
     23 N          66.0414   92.3482   11.4862 N.2     1  UNL1        0.0819
     24 N          67.3527   92.7114   12.1175 N.2     1  UNL1       -0.0365
     25 C          67.1715   92.6917   13.6064 C.2     1  UNL1        0.1346
     26 C          68.1187   92.9670   14.7365 C.3     1  UNL1        0.0792
@<TRIPOS>BOND
     1    18    19    2
     2    19    20    1
     3    20    21    2
     4    21    22    1
     5    22    16    1
     6    16     1    1
     7     1     2   ar
     8     2     3   ar
     9     3     4   ar
    10     4     5   ar
    11     5    11    1
    12    11    12   ar
    13    12    13   ar
    14    13    14   ar
    15    14    15   ar
    16     5     6   ar
    17     6     7   ar
    18     7     8   ar
    19     8     9   ar
    20     9    10   ar
    21    22    23    2
    22    23    24    1
    23    24    25    2
    24    25    26    1
    25    26    18    1
    26    25    21    1
    27    10     1   ar
    28     9     4   ar
    29    15    11   ar
    30    16    17    1
@<TRIPOS>MOLECULE
*****
 26 30 0 0 0
SMALL
GASTEIGER

@<TRIPOS>ATOM
      1 C          63.3093   89.8274   12.5367 C.ar    1  UNL1        0.1357
      2 C          63.8194   88.7265   13.4186 C.ar    1  UNL1        0.0402
      3 C          63.5360   87.2951   13.0712 C.ar    1  UNL1        0.0065
      4 C          62.7426   86.9646   11.8418 C.ar    1  UNL1        0.0361
      5 C          62.4593   85.5331   11.4944 C.ar    1  UNL1        0.1637
      6 N          61.6659   85.2026   10.2650 N.ar    1  UNL1       -0.2250
      7 C          61.1558   86.3036    9.3831 C.ar    1  UNL1        0.1006
      8 C          61.4392   87.7350    9.7306 C.ar    1  UNL1        0.0209
      9 C          62.2326   88.0655   10.9599 C.ar    1  UNL1        0.0079
     10 C          62.5159   89.4969   11.3073 C.ar    1  UNL1        0.0403
     11 N          62.9693   84.4322   12.3763 N.ar    1  UNL1       -0.2107
     12 C          64.0804   83.4804   12.0451 C.ar    1  UNL1        0.1037
     13 C          64.2556   82.5497   13.2084 C.ar    1  UNL1        0.0432
     14 C          63.2528   82.9263   14.2585 C.ar    1  UNL1        0.1222
     15 N          62.4579   84.0897   13.7442 N.ar    1  UNL1       -0.1621
     16 N          63.5926   91.2589   12.8841 N.pl3   1  UNL1       -0.1958
     17 H          63.3430   91.9761   12.2577 H       1  UNL1        0.2986
     18 C          68.4567   92.6053   15.3670 C.2     1  UNL1        0.0010
     19 C          68.2318   92.3272   13.9102 C.2     1  UNL1        0.0950
     20 N          66.8587   91.9804   13.4162 N.2     1  UNL1       -0.2354
     21 C          65.7103   91.9116   14.3788 C.2     1  UNL1        0.1834
     22 C          64.2563   91.5975   14.1859 C.2     1  UNL1        0.3707
     23 N          63.5826   91.6814   15.5235 N.2     1  UNL1        0.0819
     24 N          64.6202   92.0474   16.5430 N.2     1  UNL1       -0.0365
     25 C          65.9352   92.1896   15.8355 C.2     1  UNL1        0.1346
     26 C          67.3084   92.5365   16.3296 C.3     1  UNL1        0.0792
@<TRIPOS>BOND
     1    18    19    2
     2    19    20    1
     3    20    21    2
     4    21    22    1
     5    22    16    1
     6    16     1    1
     7     1     2   ar
     8     2     3   ar
     9     3     4   ar
    10     4     5   ar
    11     5    11    1
    12    11    12   ar
    13    12    13   ar
    14    13    14   ar
    15    14    15   ar
    16     5     6   ar
    17     6     7   ar
    18     7     8   ar
    19     8     9   ar
    20     9    10   ar
    21    22    23    2
    22    23    24    1
    23    24    25    2
    24    25    26    1
    25    26    18    1
    26    25    21    1
    27    10     1   ar
    28     9     4   ar
    29    15    11   ar
    30    16    17    1
@<TRIPOS>MOLECULE
*****
 26 30 0 0 0
SMALL
GASTEIGER

@<TRIPOS>ATOM
      1 C          63.7776   90.0266   12.7551 C.ar    1  UNL1        0.1357
      2 C          63.8976   90.8699   11.5204 C.ar    1  UNL1        0.0402
      3 C          64.7711   92.0892   11.5270 C.ar    1  UNL1        0.0065
      4 C          65.5247   92.4653   12.7683 C.ar    1  UNL1        0.0361
      5 C          66.3983   93.6847   12.7748 C.ar    1  UNL1        0.1637
      6 N          67.1518   94.0608   14.0160 N.ar    1  UNL1       -0.2250
      7 C          67.0318   93.2174   15.2508 C.ar    1  UNL1        0.1006
      8 C          66.1583   91.9981   15.2442 C.ar    1  UNL1        0.0209
      9 C          65.4047   91.6220   14.0029 C.ar    1  UNL1        0.0079
     10 C          64.5312   90.4027   13.9963 C.ar    1  UNL1        0.0403
     11 N          66.5182   94.5280   11.5401 N.ar    1  UNL1       -0.2107
     12 C          65.8236   95.8344   11.2938 C.ar    1  UNL1        0.1037
     13 C          66.2299   96.3267    9.9364 C.ar    1  UNL1        0.0432
     14 C          67.1758   95.3245    9.3438 C.ar    1  UNL1        0.1222
     15 N          67.3539   94.2129   10.3349 N.ar    1  UNL1       -0.1621
     16 N          62.9040   88.8072   12.7486 N.pl3   1  UNL1       -0.1958
     17 H          61.9949   88.8549   12.3737 H       1  UNL1        0.2986
     18 C          63.1784   83.2385   12.0062 C.2     1  UNL1        0.0010
     19 C          62.5051   84.2376   11.1126 C.2     1  UNL1        0.0950
     20 N          62.5295   85.6954   11.4652 N.2     1  UNL1       -0.2354
     21 C          63.2271   86.1541   12.7114 C.2     1  UNL1        0.1834
     22 C          63.4155   87.5151   13.3131 C.2     1  UNL1        0.3707
     23 N          64.2053   87.3571   14.5786 N.2     1  UNL1        0.0819
     24 N          64.5050   85.8985   14.7590 N.2     1  UNL1       -0.0365
     25 C          63.9004   85.1550   13.6049 C.2     1  UNL1        0.1346
     26 C          63.8761   83.6972   13.2523 C.3     1  UNL1        0.0792
@<TRIPOS>BOND
     1    18    19    2
     2    19    20    1
     3    20    21    2
     4    21    22    1
     5    22    16    1
     6    16     1    1
     7     1     2   ar
     8     2     3   ar
     9     3     4   ar
    10     4     5   ar
    11     5    11    1
    12    11    12   ar
    13    12    13   ar
    14    13    14   ar
    15    14    15   ar
    16     5     6   ar
    17     6     7   ar
    18     7     8   ar
    19     8     9   ar
    20     9    10   ar
    21    22    23    2
    22    23    24    1
    23    24    25    2
    24    25    26    1
    25    26    18    1
    26    25    21    1
    27    10     1   ar
    28     9     4   ar
    29    15    11   ar
    30    16    17    1
