@<TRIPOS>MOLECULE
*****
 30 33 0 0 0
SMALL
GASTEIGER

@<TRIPOS>ATOM
      1 C          63.2017   82.1196   11.1274 C.3     1  UNL1        0.0310
      2 C          63.1331   82.8951   12.4094 C.ar    1  UNL1       -0.0164
      3 C          63.4137   84.3687   12.4104 C.ar    1  UNL1        0.0160
      4 C          63.3451   85.1444   13.6925 C.ar    1  UNL1        0.0940
      5 C          62.9960   84.4465   14.9735 C.ar    1  UNL1        0.0681
      6 C          62.7155   82.9730   14.9726 C.ar    1  UNL1        0.0197
      7 C          62.7840   82.1973   13.6905 C.ar    1  UNL1        0.0688
      8 N          62.8740   85.0267   16.3514 N.am    1  UNL1       -0.2824
      9 C          63.0711   86.4481   16.7885 C.2     1  UNL1        0.2322
     10 O          62.8744   86.7120   18.2520 O.2     1  UNL1       -0.2744
     11 C          63.4387   87.6401   15.9557 C.3     1  UNL1        0.1309
     12 C          63.7001   87.7055   14.4801 C.2     1  UNL1        0.0681
     13 N          63.6585   86.5948   13.4729 N.2     1  UNL1       -0.2479
     14 H          62.6328   84.3905   17.0630 H       1  UNL1        0.1549
     15 C          64.0493   89.0607   13.9404 C.ar    1  UNL1        0.0140
     16 C          63.2204   89.6696   12.8485 C.ar    1  UNL1        0.0012
     17 C          63.5697   91.0249   12.3088 C.ar    1  UNL1        0.0000
     18 C          64.7478   91.7713   12.8609 C.ar    1  UNL1        0.0000
     19 C          65.5767   91.1624   13.9529 C.ar    1  UNL1        0.0001
     20 C          65.2275   89.8071   14.4926 C.ar    1  UNL1        0.0012
     21 C          66.7549   91.9088   14.5050 C.ar    1  UNL1        0.0031
     22 C          68.0883   91.8145   13.8247 C.ar    1  UNL1        0.0207
     23 C          69.2665   92.5609   14.3769 C.ar    1  UNL1        0.0989
     24 N          69.1111   93.4016   15.6093 N.ar    1  UNL1       -0.2423
     25 C          67.7775   93.4959   16.2897 C.ar    1  UNL1        0.0989
     26 C          66.5994   92.7495   15.7375 C.ar    1  UNL1        0.0207
     27 C          62.5035   80.7238   13.6895 C.3     1  UNL1        0.4183
     28 F          62.2229   79.2503   13.6884 F       1  UNL1       -0.1659
     29 F          61.0442   81.0018   13.4813 F       1  UNL1       -0.1659
     30 F          63.9627   80.4458   13.8976 F       1  UNL1       -0.1659
@<TRIPOS>BOND
     1     1     2    1
     2     2     3   ar
     3     3     4   ar
     4     4     5   ar
     5     5     6   ar
     6     6     7   ar
     7     7    27    1
     8    27    28    1
     9    27    29    1
    10    27    30    1
    11     5     8    1
    12     8     9   am
    13     9    10    2
    14     9    11    1
    15    11    12    1
    16    12    15    1
    17    15    16   ar
    18    16    17   ar
    19    17    18   ar
    20    18    19   ar
    21    19    21    1
    22    21    22   ar
    23    22    23   ar
    24    23    24   ar
    25    24    25   ar
    26    25    26   ar
    27    19    20   ar
    28    12    13    2
    29     7     2   ar
    30    20    15   ar
    31    13     4    1
    32    26    21   ar
    33     8    14    1
@<TRIPOS>MOLECULE
*****
 30 33 0 0 0
SMALL
GASTEIGER

@<TRIPOS>ATOM
      1 C          59.9391   89.5195    7.5484 C.3     1  UNL1        0.0310
      2 C          60.6238   88.9176    8.7395 C.ar    1  UNL1       -0.0164
      3 C          61.5665   89.7464    9.5609 C.ar    1  UNL1        0.0160
      4 C          62.2512   89.1445   10.7521 C.ar    1  UNL1        0.0940
      5 C          61.9933   87.7139   11.1218 C.ar    1  UNL1        0.0681
      6 C          61.0507   86.8851   10.3006 C.ar    1  UNL1        0.0197
      7 C          60.3659   87.4870    9.1094 C.ar    1  UNL1        0.0688
      8 N          62.5671   86.9243   12.2609 N.am    1  UNL1       -0.2824
      9 C          63.5405   87.3704   13.3114 C.2     1  UNL1        0.2322
     10 O          63.9246   86.3335   14.3250 O.2     1  UNL1       -0.2744
     11 C          64.1805   88.7162   13.4823 C.3     1  UNL1        0.1309
     12 C          64.0052   89.9483   12.6450 C.2     1  UNL1        0.0681
     13 N          63.1466   90.1389   11.4299 N.2     1  UNL1       -0.2479
     14 H          62.2648   85.9897   12.3278 H       1  UNL1        0.1549
     15 C          64.7926   91.1485   13.0802 C.ar    1  UNL1        0.0140
     16 C          65.1418   91.3318   14.5275 C.ar    1  UNL1        0.0012
     17 C          65.9293   92.5321   14.9628 C.ar    1  UNL1        0.0000
     18 C          66.3675   93.5489   13.9509 C.ar    1  UNL1        0.0000
     19 C          66.0183   93.3656   12.5036 C.ar    1  UNL1        0.0001
     20 C          65.2308   92.1653   12.0683 C.ar    1  UNL1        0.0012
     21 C          66.4565   94.3824   11.4917 C.ar    1  UNL1        0.0031
     22 C          66.1839   95.8388   11.7253 C.ar    1  UNL1        0.0207
     23 C          66.6221   96.8556   10.7134 C.ar    1  UNL1        0.0989
     24 N          67.3330   96.4161    9.4679 N.ar    1  UNL1       -0.2423
     25 C          67.6056   94.9596    9.2342 C.ar    1  UNL1        0.0989
     26 C          67.1674   93.9428   10.2461 C.ar    1  UNL1        0.0207
     27 C          59.4233   86.6583    8.2880 C.3     1  UNL1        0.4183
     28 F          58.4806   85.8296    7.4667 F       1  UNL1       -0.1659
     29 F          58.2719   87.1477    9.1156 F       1  UNL1       -0.1659
     30 F          60.5745   86.1688    7.4605 F       1  UNL1       -0.1659
@<TRIPOS>BOND
     1     1     2    1
     2     2     3   ar
     3     3     4   ar
     4     4     5   ar
     5     5     6   ar
     6     6     7   ar
     7     7    27    1
     8    27    28    1
     9    27    29    1
    10    27    30    1
    11     5     8    1
    12     8     9   am
    13     9    10    2
    14     9    11    1
    15    11    12    1
    16    12    15    1
    17    15    16   ar
    18    16    17   ar
    19    17    18   ar
    20    18    19   ar
    21    19    21    1
    22    21    22   ar
    23    22    23   ar
    24    23    24   ar
    25    24    25   ar
    26    25    26   ar
    27    19    20   ar
    28    12    13    2
    29     7     2   ar
    30    20    15   ar
    31    13     4    1
    32    26    21   ar
    33     8    14    1
@<TRIPOS>MOLECULE
*****
 30 33 0 0 0
SMALL
GASTEIGER

@<TRIPOS>ATOM
      1 C          64.2077   83.3267   11.0588 C.3     1  UNL1        0.0310
      2 C          63.8220   83.8010   12.4286 C.ar    1  UNL1       -0.0164
      3 C          64.0342   85.2353   12.8130 C.ar    1  UNL1        0.0160
      4 C          63.6486   85.7096   14.1829 C.ar    1  UNL1        0.0940
      5 C          63.0507   84.7496   15.1681 C.ar    1  UNL1        0.0681
      6 C          62.8384   83.3153   14.7838 C.ar    1  UNL1        0.0197
      7 C          63.2241   82.8410   13.4140 C.ar    1  UNL1        0.0688
      8 N          62.5996   85.0125   16.5744 N.am    1  UNL1       -0.2824
      9 C          62.6351   86.3005   17.3425 C.2     1  UNL1        0.2322
     10 O          62.1051   86.2369   18.7444 O.2     1  UNL1       -0.2744
     11 C          63.1303   87.6434   16.8942 C.3     1  UNL1        0.1309
     12 C          63.7124   88.0303   15.5669 C.2     1  UNL1        0.0681
     13 N          63.9431   87.1696   14.3603 N.2     1  UNL1       -0.2479
     14 H          62.2316   84.2373   17.0570 H       1  UNL1        0.1549
     15 C          64.1174   89.4678   15.4280 C.ar    1  UNL1        0.0140
     16 C          63.7507   90.4568   16.4946 C.ar    1  UNL1        0.0012
     17 C          64.1558   91.8945   16.3556 C.ar    1  UNL1        0.0000
     18 C          64.9275   92.3431   15.1502 C.ar    1  UNL1        0.0000
     19 C          65.2943   91.3541   14.0836 C.ar    1  UNL1        0.0001
     20 C          64.8892   89.9165   14.2226 C.ar    1  UNL1        0.0012
     21 C          66.0660   91.8028   12.8782 C.ar    1  UNL1        0.0031
     22 C          67.5612   91.6847   12.8583 C.ar    1  UNL1        0.0207
     23 C          68.3329   92.1334   11.6528 C.ar    1  UNL1        0.0989
     24 N          67.6095   92.7000   10.4673 N.ar    1  UNL1       -0.2423
     25 C          66.1142   92.8180   10.4872 C.ar    1  UNL1        0.0989
     26 C          65.3425   92.3694   11.6927 C.ar    1  UNL1        0.0207
     27 C          63.0119   81.4067   13.0295 C.3     1  UNL1        0.4183
     28 F          62.7995   79.9725   12.6450 F       1  UNL1       -0.1659
     29 F          61.6770   81.7612   12.4442 F       1  UNL1       -0.1659
     30 F          64.3466   81.0523   13.6147 F       1  UNL1       -0.1659
@<TRIPOS>BOND
     1     1     2    1
     2     2     3   ar
     3     3     4   ar
     4     4     5   ar
     5     5     6   ar
     6     6     7   ar
     7     7    27    1
     8    27    28    1
     9    27    29    1
    10    27    30    1
    11     5     8    1
    12     8     9   am
    13     9    10    2
    14     9    11    1
    15    11    12    1
    16    12    15    1
    17    15    16   ar
    18    16    17   ar
    19    17    18   ar
    20    18    19   ar
    21    19    21    1
    22    21    22   ar
    23    22    23   ar
    24    23    24   ar
    25    24    25   ar
    26    25    26   ar
    27    19    20   ar
    28    12    13    2
    29     7     2   ar
    30    20    15   ar
    31    13     4    1
    32    26    21   ar
    33     8    14    1
@<TRIPOS>MOLECULE
*****
 30 33 0 0 0
SMALL
GASTEIGER

@<TRIPOS>ATOM
      1 C          60.1580   88.9665    8.2837 C.3     1  UNL1        0.0310
      2 C          60.8995   88.1816    9.3248 C.ar    1  UNL1       -0.0164
      3 C          61.5444   88.8894   10.4795 C.ar    1  UNL1        0.0160
      4 C          62.2860   88.1045   11.5207 C.ar    1  UNL1        0.0940
      5 C          62.3826   86.6120   11.4073 C.ar    1  UNL1        0.0681
      6 C          61.7377   85.9042   10.2526 C.ar    1  UNL1        0.0197
      7 C          60.9962   86.6890    9.2114 C.ar    1  UNL1        0.0688
      8 N          63.0687   85.6465   12.3277 N.am    1  UNL1       -0.2824
      9 C          63.8276   85.9353   13.5890 C.2     1  UNL1        0.2322
     10 O          64.4022   84.7405   14.2907 O.2     1  UNL1       -0.2744
     11 C          64.0877   87.2606   14.2412 C.3     1  UNL1        0.1309
     12 C          63.6534   88.6248   13.7934 C.2     1  UNL1        0.0681
     13 N          62.8515   89.0003   12.5827 N.2     1  UNL1       -0.2479
     14 H          63.0136   84.6979   12.0700 H       1  UNL1        0.1549
     15 C          64.0769   89.7639   14.6726 C.ar    1  UNL1        0.0140
     16 C          63.1482   90.2791   15.7320 C.ar    1  UNL1        0.0012
     17 C          63.5718   91.4183   16.6112 C.ar    1  UNL1        0.0000
     18 C          64.9239   92.0423   16.4309 C.ar    1  UNL1        0.0000
     19 C          65.8525   91.5271   15.3715 C.ar    1  UNL1        0.0001
     20 C          65.4289   90.3879   14.4923 C.ar    1  UNL1        0.0012
     21 C          67.2046   92.1511   15.1913 C.ar    1  UNL1        0.0031
     22 C          68.0827   91.7225   14.0533 C.ar    1  UNL1        0.0207
     23 C          69.4348   92.3465   13.8731 C.ar    1  UNL1        0.0989
     24 N          69.9088   93.3991   14.8309 N.ar    1  UNL1       -0.2423
     25 C          69.0306   93.8276   15.9690 C.ar    1  UNL1        0.0989
     26 C          67.6785   93.2037   16.1492 C.ar    1  UNL1        0.0207
     27 C          60.3513   85.9814    8.0567 C.3     1  UNL1        0.4183
     28 F          59.7065   85.2737    6.9020 F       1  UNL1       -0.1659
     29 F          61.7037   85.5760    7.5499 F       1  UNL1       -0.1659
     30 F          58.9990   86.3867    8.5634 F       1  UNL1       -0.1659
@<TRIPOS>BOND
     1     1     2    1
     2     2     3   ar
     3     3     4   ar
     4     4     5   ar
     5     5     6   ar
     6     6     7   ar
     7     7    27    1
     8    27    28    1
     9    27    29    1
    10    27    30    1
    11     5     8    1
    12     8     9   am
    13     9    10    2
    14     9    11    1
    15    11    12    1
    16    12    15    1
    17    15    16   ar
    18    16    17   ar
    19    17    18   ar
    20    18    19   ar
    21    19    21    1
    22    21    22   ar
    23    22    23   ar
    24    23    24   ar
    25    24    25   ar
    26    25    26   ar
    27    19    20   ar
    28    12    13    2
    29     7     2   ar
    30    20    15   ar
    31    13     4    1
    32    26    21   ar
    33     8    14    1
@<TRIPOS>MOLECULE
*****
 30 33 0 0 0
SMALL
GASTEIGER

@<TRIPOS>ATOM
      1 C          62.7413   81.4829   11.0113 C.3     1  UNL1        0.0310
      2 C          62.8634   82.4729   12.1315 C.ar    1  UNL1       -0.0164
      3 C          62.9699   83.9383   11.8291 C.ar    1  UNL1        0.0160
      4 C          63.0920   84.9283   12.9494 C.ar    1  UNL1        0.0940
      5 C          63.1077   84.4530   14.3719 C.ar    1  UNL1        0.0681
      6 C          63.0012   82.9878   14.6744 C.ar    1  UNL1        0.0197
      7 C          62.8791   81.9976   13.5542 C.ar    1  UNL1        0.0688
      8 N          63.2206   85.2651   15.6281 N.am    1  UNL1       -0.2824
      9 C          63.3458   86.7530   15.7718 C.2     1  UNL1        0.2322
     10 O          63.4403   87.2652   17.1785 O.2     1  UNL1       -0.2744
     11 C          63.3889   87.7962   14.6949 C.3     1  UNL1        0.1309
     12 C          63.3176   87.6093   13.2083 C.2     1  UNL1        0.0681
     13 N          63.1854   86.3330   12.4314 N.2     1  UNL1       -0.2479
     14 H          63.2114   84.7539   16.4695 H       1  UNL1        0.1549
     15 C          63.3876   88.8647   12.3905 C.ar    1  UNL1        0.0140
     16 C          62.6112   88.9709   11.1114 C.ar    1  UNL1        0.0012
     17 C          62.6813   90.2264   10.2935 C.ar    1  UNL1        0.0000
     18 C          63.5277   91.3757   10.7547 C.ar    1  UNL1        0.0000
     19 C          64.3041   91.2696   12.0338 C.ar    1  UNL1        0.0001
     20 C          64.2340   90.0140   12.8516 C.ar    1  UNL1        0.0012
     21 C          65.1505   92.4189   12.4949 C.ar    1  UNL1        0.0031
     22 C          65.6845   92.4421   13.8964 C.ar    1  UNL1        0.0207
     23 C          66.5309   93.5914   14.3576 C.ar    1  UNL1        0.0989
     24 N          66.8433   94.7175   13.4173 N.ar    1  UNL1       -0.2423
     25 C          66.3092   94.6943   12.0157 C.ar    1  UNL1        0.0989
     26 C          65.4628   93.5450   11.5545 C.ar    1  UNL1        0.0207
     27 C          62.7726   80.5323   13.8565 C.3     1  UNL1        0.4183
     28 F          62.6663   79.0670   14.1589 F       1  UNL1       -0.1659
     29 F          64.2686   80.4220   13.8482 F       1  UNL1       -0.1659
     30 F          61.2768   80.6426   13.8649 F       1  UNL1       -0.1659
@<TRIPOS>BOND
     1     1     2    1
     2     2     3   ar
     3     3     4   ar
     4     4     5   ar
     5     5     6   ar
     6     6     7   ar
     7     7    27    1
     8    27    28    1
     9    27    29    1
    10    27    30    1
    11     5     8    1
    12     8     9   am
    13     9    10    2
    14     9    11    1
    15    11    12    1
    16    12    15    1
    17    15    16   ar
    18    16    17   ar
    19    17    18   ar
    20    18    19   ar
    21    19    21    1
    22    21    22   ar
    23    22    23   ar
    24    23    24   ar
    25    24    25   ar
    26    25    26   ar
    27    19    20   ar
    28    12    13    2
    29     7     2   ar
    30    20    15   ar
    31    13     4    1
    32    26    21   ar
    33     8    14    1
@<TRIPOS>MOLECULE
*****
 30 33 0 0 0
SMALL
GASTEIGER

@<TRIPOS>ATOM
      1 C          65.1589   93.3290   11.9691 C.3     1  UNL1        0.0310
      2 C          64.7127   91.9200   12.2254 C.ar    1  UNL1       -0.0164
      3 C          63.7626   91.2501   11.2774 C.ar    1  UNL1        0.0160
      4 C          63.3164   89.8411   11.5337 C.ar    1  UNL1        0.0940
      5 C          63.8203   89.1021   12.7378 C.ar    1  UNL1        0.0681
      6 C          64.7704   89.7719   13.6857 C.ar    1  UNL1        0.0197
      7 C          65.2166   91.1810   13.4295 C.ar    1  UNL1        0.0688
      8 N          63.5042   87.7028   13.1763 N.am    1  UNL1       -0.2824
      9 C          62.6061   86.6971   12.5190 C.2     1  UNL1        0.2322
     10 O          62.4974   85.3709   13.2115 O.2     1  UNL1       -0.2744
     11 C          61.8024   86.8422   11.2609 C.3     1  UNL1        0.1309
     12 C          61.6982   88.0289   10.3493 C.2     1  UNL1        0.0681
     13 N          62.3720   89.3635   10.4707 N.2     1  UNL1       -0.2479
     14 H          63.9443   87.4052   14.0052 H       1  UNL1        0.1549
     15 C          60.8016   87.8583    9.1589 C.ar    1  UNL1        0.0140
     16 C          60.1792   86.5236    8.8738 C.ar    1  UNL1        0.0012
     17 C          59.2826   86.3531    7.6833 C.ar    1  UNL1        0.0000
     18 C          59.0085   87.5173    6.7780 C.ar    1  UNL1        0.0000
     19 C          59.6309   88.8520    7.0631 C.ar    1  UNL1        0.0001
     20 C          60.5275   89.0225    8.2536 C.ar    1  UNL1        0.0012
     21 C          59.3567   90.0161    6.1578 C.ar    1  UNL1        0.0031
     22 C          57.9472   90.4803    5.9390 C.ar    1  UNL1        0.0207
     23 C          57.6731   91.6444    5.0336 C.ar    1  UNL1        0.0989
     24 N          58.8083   92.3444    4.3472 N.ar    1  UNL1       -0.2423
     25 C          60.2178   91.8801    4.5660 C.ar    1  UNL1        0.0989
     26 C          60.4920   90.7160    5.4714 C.ar    1  UNL1        0.0207
     27 C          66.1667   91.8509   14.3774 C.3     1  UNL1        0.4183
     28 F          67.1168   92.5209   15.3252 F       1  UNL1       -0.1659
     29 F          67.2952   91.6041   13.4206 F       1  UNL1       -0.1659
     30 F          65.0382   92.0978   15.3341 F       1  UNL1       -0.1659
@<TRIPOS>BOND
     1     1     2    1
     2     2     3   ar
     3     3     4   ar
     4     4     5   ar
     5     5     6   ar
     6     6     7   ar
     7     7    27    1
     8    27    28    1
     9    27    29    1
    10    27    30    1
    11     5     8    1
    12     8     9   am
    13     9    10    2
    14     9    11    1
    15    11    12    1
    16    12    15    1
    17    15    16   ar
    18    16    17   ar
    19    17    18   ar
    20    18    19   ar
    21    19    21    1
    22    21    22   ar
    23    22    23   ar
    24    23    24   ar
    25    24    25   ar
    26    25    26   ar
    27    19    20   ar
    28    12    13    2
    29     7     2   ar
    30    20    15   ar
    31    13     4    1
    32    26    21   ar
    33     8    14    1
@<TRIPOS>MOLECULE
*****
 30 33 0 0 0
SMALL
GASTEIGER

@<TRIPOS>ATOM
      1 C          59.0074   86.5974    7.2551 C.3     1  UNL1        0.0310
      2 C          59.8388   87.4729    8.1452 C.ar    1  UNL1       -0.0164
      3 C          60.5741   86.8766    9.3087 C.ar    1  UNL1        0.0160
      4 C          61.4055   87.7521   10.1989 C.ar    1  UNL1        0.0940
      5 C          61.5015   89.2237    9.9255 C.ar    1  UNL1        0.0681
      6 C          60.7663   89.8201    8.7620 C.ar    1  UNL1        0.0197
      7 C          59.9348   88.9446    7.8718 C.ar    1  UNL1        0.0688
      8 N          62.2687   90.2675   10.6820 N.am    1  UNL1       -0.2824
      9 C          63.1292   90.0971   11.8989 C.2     1  UNL1        0.2322
     10 O          63.7682   91.3483   12.4243 O.2     1  UNL1       -0.2744
     11 C          63.4350   88.8411   12.6595 C.3     1  UNL1        0.1309
     12 C          62.9560   87.4451   12.3914 C.2     1  UNL1        0.0681
     13 N          62.0528   86.9604   11.2963 N.2     1  UNL1       -0.2479
     14 H          62.1980   91.1857   10.3339 H       1  UNL1        0.1549
     15 C          63.4449   86.3950   13.3444 C.ar    1  UNL1        0.0140
     16 C          64.4139   86.7597   14.4297 C.ar    1  UNL1        0.0012
     17 C          64.9028   85.7095   15.3827 C.ar    1  UNL1        0.0000
     18 C          64.4226   84.2946   15.2504 C.ar    1  UNL1        0.0000
     19 C          63.4536   83.9298   14.1650 C.ar    1  UNL1        0.0001
     20 C          62.9647   84.9801   13.2120 C.ar    1  UNL1        0.0012
     21 C          62.9734   82.5149   14.0327 C.ar    1  UNL1        0.0031
     22 C          63.9318   81.4318   13.6353 C.ar    1  UNL1        0.0207
     23 C          63.4517   80.0169   13.5029 C.ar    1  UNL1        0.0989
     24 N          62.0131   79.6852   13.7680 N.ar    1  UNL1       -0.2423
     25 C          61.0546   80.7685   14.1654 C.ar    1  UNL1        0.0989
     26 C          61.5347   82.1834   14.2978 C.ar    1  UNL1        0.0207
     27 C          59.1995   89.5409    6.7083 C.3     1  UNL1        0.4183
     28 F          58.4641   90.1370    5.5449 F       1  UNL1       -0.1659
     29 F          57.9081   89.0015    7.2482 F       1  UNL1       -0.1659
     30 F          60.4908   90.0802    6.1685 F       1  UNL1       -0.1659
@<TRIPOS>BOND
     1     1     2    1
     2     2     3   ar
     3     3     4   ar
     4     4     5   ar
     5     5     6   ar
     6     6     7   ar
     7     7    27    1
     8    27    28    1
     9    27    29    1
    10    27    30    1
    11     5     8    1
    12     8     9   am
    13     9    10    2
    14     9    11    1
    15    11    12    1
    16    12    15    1
    17    15    16   ar
    18    16    17   ar
    19    17    18   ar
    20    18    19   ar
    21    19    21    1
    22    21    22   ar
    23    22    23   ar
    24    23    24   ar
    25    24    25   ar
    26    25    26   ar
    27    19    20   ar
    28    12    13    2
    29     7     2   ar
    30    20    15   ar
    31    13     4    1
    32    26    21   ar
    33     8    14    1
