@<TRIPOS>MOLECULE
*****
 34 37 0 0 0
SMALL
GASTEIGER

@<TRIPOS>ATOM
      1 N          62.9675   90.8728   11.5208 N.am    1  UNL1       -0.2438
      2 C          63.5167   91.5188   10.2835 C.3     1  UNL1        0.1009
      3 C          64.6858   92.4535   10.3813 C.3     1  UNL1        0.0662
      4 C          65.3056   92.7422   11.7164 C.3     1  UNL1        0.1599
      5 O          64.7564   92.0962   12.9538 O.3     1  UNL1       -0.4374
      6 C          63.5873   91.1615   12.8560 C.2     1  UNL1        0.4051
      7 O          63.0380   90.5155   14.0933 O.2     1  UNL1       -0.2262
      8 C          66.1751   93.5909   10.8366 C.ar    1  UNL1        0.0412
      9 C          65.8862   95.0549   10.6847 C.ar    1  UNL1        0.0013
     10 C          66.7556   95.9035    9.8049 C.ar    1  UNL1       -0.0001
     11 C          67.9138   95.2881    9.0771 C.ar    1  UNL1        0.0023
     12 C          68.2027   93.8240    9.2290 C.ar    1  UNL1        0.0294
     13 C          67.3333   92.9754   10.1088 C.ar    1  UNL1        0.1393
     14 F          67.6221   91.5114   10.2608 F       1  UNL1       -0.2044
     15 C          60.4237   90.4807   11.1664 C.3     1  UNL1        0.0265
     16 C          61.7984   89.9381   11.4230 C.3     1  UNL1        0.1011
     17 C          62.0040   88.4607   11.5819 C.ar    1  UNL1       -0.0042
     18 C          63.1059   87.9470   12.4604 C.ar    1  UNL1       -0.0027
     19 C          63.3115   86.4697   12.6192 C.ar    1  UNL1       -0.0003
     20 C          62.4151   85.5061   11.8995 C.ar    1  UNL1       -0.0000
     21 C          61.3132   86.0198   11.0210 C.ar    1  UNL1       -0.0003
     22 C          61.1076   87.4971   10.8622 C.ar    1  UNL1       -0.0027
     23 C          62.6207   84.0287   12.0584 C.ar    1  UNL1        0.0001
     24 C          62.3928   83.3788   13.3909 C.ar    1  UNL1        0.0023
     25 C          62.5984   81.9014   13.5497 C.ar    1  UNL1        0.0296
     26 C          63.0319   81.0741   12.3760 C.ar    1  UNL1        0.1401
     27 F          63.2375   79.5968   12.5348 F       1  UNL1       -0.2042
     28 C          63.2598   81.7241   11.0435 C.ar    1  UNL1        0.0296
     29 C          63.0542   83.2014   10.8847 C.ar    1  UNL1        0.0023
     30 C          66.2274   93.3256   12.7460 C.3     1  UNL1        0.0472
     31 C          66.6358   92.5089   13.9359 C.3     1  UNL1        0.0357
     32 C          68.0864   92.2200   14.1853 C.3     1  UNL1        0.1373
     33 O          68.9437   91.6770   13.0806 O.3     1  UNL1       -0.3820
     34 H          68.6395   90.7872   12.8429 H       1  UNL1        0.2104
@<TRIPOS>BOND
     1    16    15    1
     2    16    17    1
     3    17    18   ar
     4    18    19   ar
     5    19    20   ar
     6    20    23    1
     7    23    24   ar
     8    24    25   ar
     9    25    26   ar
    10    26    27    1
    11    26    28   ar
    12    28    29   ar
    13    20    21   ar
    14    21    22   ar
    15    16     1    1
    16     1     2    1
    17     2     3    1
    18     3     4    1
    19     4    30    1
    20    30    31    1
    21    31    32    1
    22    32    33    1
    23     4     8    1
    24     8     9   ar
    25     9    10   ar
    26    10    11   ar
    27    11    12   ar
    28    12    13   ar
    29    13    14    1
    30     4     5    1
    31     5     6    1
    32     6     7    2
    33    22    17   ar
    34     6     1   am
    35    29    23   ar
    36    13     8   ar
    37    33    34    1
@<TRIPOS>MOLECULE
*****
 34 37 0 0 0
SMALL
GASTEIGER

@<TRIPOS>ATOM
      1 N          63.4451   90.5856   11.8932 N.am    1  UNL1       -0.2438
      2 C          64.1846   90.4598   13.1921 C.3     1  UNL1        0.1009
      3 C          65.3833   91.3210   13.4593 C.3     1  UNL1        0.0662
      4 C          65.8425   92.3081   12.4275 C.3     1  UNL1        0.1599
      5 O          65.1031   92.4340   11.1285 O.3     1  UNL1       -0.4374
      6 C          63.9044   91.5728   10.8613 C.2     1  UNL1        0.4051
      7 O          63.1650   91.6987    9.5624 O.2     1  UNL1       -0.2262
      8 C          66.8648   92.5548   13.4972 C.ar    1  UNL1        0.0412
      9 C          66.5062   93.3715   14.7032 C.ar    1  UNL1        0.0013
     10 C          67.5285   93.6182   15.7729 C.ar    1  UNL1       -0.0001
     11 C          68.9092   93.0482   15.6365 C.ar    1  UNL1        0.0023
     12 C          69.2678   92.2314   14.4305 C.ar    1  UNL1        0.0294
     13 C          68.2455   91.9847   13.3609 C.ar    1  UNL1        0.1393
     14 F          68.6040   91.1680   12.1549 F       1  UNL1       -0.2044
     15 C          60.9489   90.3527   11.2117 C.3     1  UNL1        0.0265
     16 C          62.2464   89.7244   11.6260 C.3     1  UNL1        0.1011
     17 C          62.3453   88.2349   11.7731 C.ar    1  UNL1       -0.0042
     18 C          61.5135   87.3386   10.9044 C.ar    1  UNL1       -0.0027
     19 C          61.6124   85.8491   11.0516 C.ar    1  UNL1       -0.0003
     20 C          62.5431   85.2560   12.0674 C.ar    1  UNL1       -0.0000
     21 C          63.3749   86.1523   12.9361 C.ar    1  UNL1       -0.0003
     22 C          63.2760   87.6417   12.7890 C.ar    1  UNL1       -0.0027
     23 C          62.6420   83.7664   12.2145 C.ar    1  UNL1        0.0001
     24 C          62.3628   83.1236   13.5407 C.ar    1  UNL1        0.0023
     25 C          62.4617   81.6341   13.6878 C.ar    1  UNL1        0.0296
     26 C          62.8398   80.7874   12.5087 C.ar    1  UNL1        0.1401
     27 F          62.9386   79.2980   12.6558 F       1  UNL1       -0.2042
     28 C          63.1189   81.4303   11.1825 C.ar    1  UNL1        0.0296
     29 C          63.0200   82.9198   11.0354 C.ar    1  UNL1        0.0023
     30 C          66.6569   93.3809   11.7672 C.3     1  UNL1        0.0472
     31 C          66.7711   93.4227   10.2722 C.3     1  UNL1        0.0357
     32 C          68.0321   93.9200    9.6299 C.3     1  UNL1        0.1373
     33 O          69.3213   93.1819    9.8381 O.3     1  UNL1       -0.3820
     34 H          69.5802   93.2403   10.7711 H       1  UNL1        0.2104
@<TRIPOS>BOND
     1    16    15    1
     2    16    17    1
     3    17    18   ar
     4    18    19   ar
     5    19    20   ar
     6    20    23    1
     7    23    24   ar
     8    24    25   ar
     9    25    26   ar
    10    26    27    1
    11    26    28   ar
    12    28    29   ar
    13    20    21   ar
    14    21    22   ar
    15    16     1    1
    16     1     2    1
    17     2     3    1
    18     3     4    1
    19     4    30    1
    20    30    31    1
    21    31    32    1
    22    32    33    1
    23     4     8    1
    24     8     9   ar
    25     9    10   ar
    26    10    11   ar
    27    11    12   ar
    28    12    13   ar
    29    13    14    1
    30     4     5    1
    31     5     6    1
    32     6     7    2
    33    22    17   ar
    34     6     1   am
    35    29    23   ar
    36    13     8   ar
    37    33    34    1
@<TRIPOS>MOLECULE
*****
 34 37 0 0 0
SMALL
GASTEIGER

@<TRIPOS>ATOM
      1 N          64.0429   91.0329   13.0749 N.am    1  UNL1       -0.2438
      2 C          64.1903   91.6740   11.7269 C.3     1  UNL1        0.1009
      3 C          65.1382   92.8218   11.5419 C.3     1  UNL1        0.0662
      4 C          65.9387   93.3284   12.7048 C.3     1  UNL1        0.1599
      5 O          65.7913   92.6872   14.0529 O.3     1  UNL1       -0.4374
      6 C          64.8435   91.5395   14.2380 C.2     1  UNL1        0.4051
      7 O          64.6961   90.8984   15.5860 O.2     1  UNL1       -0.2262
      8 C          66.4224   94.2576   11.6311 C.ar    1  UNL1        0.0412
      9 C          66.0962   95.7199   11.7020 C.ar    1  UNL1        0.0013
     10 C          66.5799   96.6491   10.6283 C.ar    1  UNL1       -0.0001
     11 C          67.3898   96.1158    9.4839 C.ar    1  UNL1        0.0023
     12 C          67.7161   94.6534    9.4131 C.ar    1  UNL1        0.0294
     13 C          67.2323   93.7243   10.4868 C.ar    1  UNL1        0.1393
     14 F          67.5585   92.2619   10.4160 F       1  UNL1       -0.2044
     15 C          62.4502   89.6526   14.5942 C.3     1  UNL1        0.0265
     16 C          63.0951   89.8852   13.2600 C.3     1  UNL1        0.1011
     17 C          62.7921   88.9699   12.1108 C.ar    1  UNL1       -0.0042
     18 C          63.0083   87.4923   12.2516 C.ar    1  UNL1       -0.0027
     19 C          62.7053   86.5772   11.1025 C.ar    1  UNL1       -0.0003
     20 C          62.1861   87.1396    9.8125 C.ar    1  UNL1       -0.0000
     21 C          61.9699   88.6172    9.6716 C.ar    1  UNL1       -0.0003
     22 C          62.2729   89.5324   10.8208 C.ar    1  UNL1       -0.0027
     23 C          61.8830   86.2244    8.6633 C.ar    1  UNL1        0.0001
     24 C          60.5077   86.2016    8.0650 C.ar    1  UNL1        0.0023
     25 C          60.2047   85.2864    6.9158 C.ar    1  UNL1        0.0296
     26 C          61.2771   84.3939    6.3649 C.ar    1  UNL1        0.1401
     27 F          60.9741   83.4787    5.2158 F       1  UNL1       -0.2042
     28 C          62.6525   84.4167    6.9632 C.ar    1  UNL1        0.0296
     29 C          62.9554   85.3319    8.1123 C.ar    1  UNL1        0.0023
     30 C          66.9072   94.1577   13.4949 C.3     1  UNL1        0.0472
     31 C          67.2921   93.7417   14.8837 C.3     1  UNL1        0.0357
     32 C          68.7022   93.3230   15.1776 C.3     1  UNL1        0.1373
     33 O          69.4026   92.3571   14.2685 O.3     1  UNL1       -0.3820
     34 H          68.9638   91.4933   14.3147 H       1  UNL1        0.2104
@<TRIPOS>BOND
     1    16    15    1
     2    16    17    1
     3    17    18   ar
     4    18    19   ar
     5    19    20   ar
     6    20    23    1
     7    23    24   ar
     8    24    25   ar
     9    25    26   ar
    10    26    27    1
    11    26    28   ar
    12    28    29   ar
    13    20    21   ar
    14    21    22   ar
    15    16     1    1
    16     1     2    1
    17     2     3    1
    18     3     4    1
    19     4    30    1
    20    30    31    1
    21    31    32    1
    22    32    33    1
    23     4     8    1
    24     8     9   ar
    25     9    10   ar
    26    10    11   ar
    27    11    12   ar
    28    12    13   ar
    29    13    14    1
    30     4     5    1
    31     5     6    1
    32     6     7    2
    33    22    17   ar
    34     6     1   am
    35    29    23   ar
    36    13     8   ar
    37    33    34    1
