@<TRIPOS>MOLECULE
*****
 35 38 0 0 0
SMALL
GASTEIGER

@<TRIPOS>ATOM
      1 N          62.1814   90.5833   10.6921 N.3     1  UNL1       -0.2727
      2 C          63.2450   91.4530   10.0902 C.3     1  UNL1        0.0722
      3 C          64.4198   91.8827   10.9179 C.3     1  UNL1        0.0204
      4 C          64.5310   91.4428   12.3476 C.3     1  UNL1        0.0353
      5 C          63.4674   90.5731   12.9496 C.3     1  UNL1        0.0204
      6 C          62.2926   90.1433   12.1219 C.3     1  UNL1        0.0722
      7 C          65.7058   91.8726   13.1754 C.3     1  UNL1        0.1256
      8 O          65.1958   91.0540   14.3242 O.3     1  UNL1       -0.3786
      9 H          65.3493   91.5312   15.1546 H       1  UNL1        0.2111
     10 C          66.8806   92.3024   14.0031 C.ar    1  UNL1        0.0056
     11 C          66.6710   93.1670   15.2108 C.ar    1  UNL1       -0.0017
     12 C          67.8458   93.5967   16.0385 C.ar    1  UNL1       -0.0002
     13 C          69.2302   93.1619   15.6586 C.ar    1  UNL1       -0.0000
     14 C          69.4398   92.2972   14.4509 C.ar    1  UNL1       -0.0002
     15 C          68.2650   91.8675   13.6232 C.ar    1  UNL1       -0.0017
     16 C          66.2158   92.6912   12.0265 C.ar    1  UNL1        0.0056
     17 C          67.0379   92.0445   10.9514 C.ar    1  UNL1       -0.0017
     18 C          67.5479   92.8631    9.8026 C.ar    1  UNL1       -0.0002
     19 C          67.2358   94.3284    9.7289 C.ar    1  UNL1       -0.0000
     20 C          66.4137   94.9751   10.8040 C.ar    1  UNL1       -0.0002
     21 C          65.9037   94.1565   11.9528 C.ar    1  UNL1       -0.0017
     22 C          61.0066   90.1535    9.8644 C.3     1  UNL1        0.0725
     23 C          60.8111   88.7030    9.5358 C.3     1  UNL1        0.0254
     24 C          61.9917   87.7789    9.4890 C.3     1  UNL1        0.0706
     25 C          61.7942   86.3249    9.1779 C.2     1  UNL1        0.1731
     26 O          60.9239   85.9158    8.0268 O.2     1  UNL1       -0.2913
     27 C          63.8126   83.1902   11.6978 C.ar    1  UNL1       -0.0178
     28 C          64.0611   83.2384   10.2193 C.ar    1  UNL1       -0.0038
     29 C          63.3883   84.2833    9.3794 C.ar    1  UNL1        0.0025
     30 C          62.4670   85.2800   10.0179 C.ar    1  UNL1        0.0347
     31 C          62.2185   85.2318   11.4963 C.ar    1  UNL1        0.0025
     32 C          62.8913   84.1869   12.3363 C.ar    1  UNL1       -0.0038
     33 C          64.4854   82.1454   12.5378 C.3     1  UNL1        0.0523
     34 C          62.5107   80.4832   12.8341 C.2     1  UNL1       -0.0046
     35 C          63.6656   81.2449   13.4136 C.2     1  UNL1       -0.0214
@<TRIPOS>BOND
     1    34    35    2
     2    35    33    1
     3    33    27    1
     4    27    28   ar
     5    28    29   ar
     6    29    30   ar
     7    30    25    1
     8    25    26    2
     9    25    24    1
    10    24    23    1
    11    23    22    1
    12    22     1    1
    13     1     2    1
    14     2     3    1
    15     3     4    1
    16     4     7    1
    17     7     8    1
    18     7    10    1
    19    10    11   ar
    20    11    12   ar
    21    12    13   ar
    22    13    14   ar
    23    14    15   ar
    24     7    16    1
    25    16    17   ar
    26    17    18   ar
    27    18    19   ar
    28    19    20   ar
    29    20    21   ar
    30     4     5    1
    31     5     6    1
    32    30    31   ar
    33    31    32   ar
    34    32    27   ar
    35     6     1    1
    36    15    10   ar
    37    21    16   ar
    38     8     9    1
@<TRIPOS>MOLECULE
*****
 35 38 0 0 0
SMALL
GASTEIGER

@<TRIPOS>ATOM
      1 N          61.3509   90.1283   10.5811 N.3     1  UNL1       -0.2727
      2 C          61.2450   89.8818   12.0569 C.3     1  UNL1        0.0722
      3 C          62.3685   90.2820   12.9667 C.3     1  UNL1        0.0204
      4 C          63.5979   90.9287   12.4006 C.3     1  UNL1        0.0353
      5 C          63.7038   91.1752   10.9248 C.3     1  UNL1        0.0204
      6 C          62.5803   90.7750   10.0150 C.3     1  UNL1        0.0722
      7 C          64.7213   91.3289   13.3104 C.3     1  UNL1        0.1256
      8 O          65.1360   92.3880   12.3324 O.3     1  UNL1       -0.3786
      9 H          66.1043   92.4332   12.2960 H       1  UNL1        0.2111
     10 C          65.8448   91.7291   14.2201 C.ar    1  UNL1        0.0056
     11 C          67.2672   91.5465   13.7805 C.ar    1  UNL1       -0.0017
     12 C          68.3907   91.9467   14.6902 C.ar    1  UNL1       -0.0002
     13 C          68.0918   92.5295   16.0396 C.ar    1  UNL1       -0.0000
     14 C          66.6693   92.7122   16.4793 C.ar    1  UNL1       -0.0002
     15 C          65.5458   92.3120   15.5696 C.ar    1  UNL1       -0.0017
     16 C          64.3066   90.2699   14.2884 C.ar    1  UNL1        0.0056
     17 C          63.6014   90.6537   15.5553 C.ar    1  UNL1       -0.0017
     18 C          63.1867   89.5947   16.5333 C.ar    1  UNL1       -0.0002
     19 C          63.4773   88.1518   16.2443 C.ar    1  UNL1       -0.0000
     20 C          64.1825   87.7679   14.9774 C.ar    1  UNL1       -0.0002
     21 C          64.5972   88.8270   13.9994 C.ar    1  UNL1       -0.0017
     22 C          60.2274   89.7281    9.6714 C.3     1  UNL1        0.0725
     23 C          60.2792   88.4147    8.9487 C.3     1  UNL1        0.0254
     24 C          60.5550   87.1510    9.7083 C.3     1  UNL1        0.0706
     25 C          61.4873   86.1225    9.1400 C.2     1  UNL1        0.1731
     26 O          61.6526   85.9996    7.6543 O.2     1  UNL1       -0.2913
     27 C          63.7883   83.4060   11.8924 C.ar    1  UNL1       -0.0178
     28 C          63.9989   83.3243   10.4095 C.ar    1  UNL1       -0.0038
     29 C          63.2319   84.2298    9.4921 C.ar    1  UNL1        0.0025
     30 C          62.2543   85.2170   10.0575 C.ar    1  UNL1        0.0347
     31 C          62.0437   85.2987   11.5404 C.ar    1  UNL1        0.0025
     32 C          62.8107   84.3932   12.4578 C.ar    1  UNL1       -0.0038
     33 C          64.5553   82.5004   12.8099 C.3     1  UNL1        0.0523
     34 C          62.6979   80.6852   12.7413 C.2     1  UNL1       -0.0046
     35 C          63.8829   81.3062   13.4195 C.2     1  UNL1       -0.0214
@<TRIPOS>BOND
     1    34    35    2
     2    35    33    1
     3    33    27    1
     4    27    28   ar
     5    28    29   ar
     6    29    30   ar
     7    30    25    1
     8    25    26    2
     9    25    24    1
    10    24    23    1
    11    23    22    1
    12    22     1    1
    13     1     2    1
    14     2     3    1
    15     3     4    1
    16     4     7    1
    17     7     8    1
    18     7    10    1
    19    10    11   ar
    20    11    12   ar
    21    12    13   ar
    22    13    14   ar
    23    14    15   ar
    24     7    16    1
    25    16    17   ar
    26    17    18   ar
    27    18    19   ar
    28    19    20   ar
    29    20    21   ar
    30     4     5    1
    31     5     6    1
    32    30    31   ar
    33    31    32   ar
    34    32    27   ar
    35     6     1    1
    36    15    10   ar
    37    21    16   ar
    38     8     9    1
@<TRIPOS>MOLECULE
*****
 35 38 0 0 0
SMALL
GASTEIGER

@<TRIPOS>ATOM
      1 N          63.5056   88.4240   16.0537 N.3     1  UNL1       -0.2727
      2 C          63.2788   89.8709   16.3776 C.3     1  UNL1        0.0722
      3 C          63.7682   90.9349   15.4404 C.3     1  UNL1        0.0204
      4 C          64.4844   90.5521   14.1793 C.3     1  UNL1        0.0353
      5 C          64.7113   89.1051   13.8554 C.3     1  UNL1        0.0204
      6 C          64.2219   88.0411   14.7925 C.3     1  UNL1        0.0722
      7 C          64.9738   91.6161   13.2422 C.3     1  UNL1        0.1256
      8 O          63.8149   91.3450   12.3292 O.3     1  UNL1       -0.3786
      9 H          64.1089   91.4056   11.4068 H       1  UNL1        0.2111
     10 C          65.4631   92.6802   12.3050 C.ar    1  UNL1        0.0056
     11 C          65.4739   92.4300   10.8261 C.ar    1  UNL1       -0.0017
     12 C          65.9632   93.4940    9.8889 C.ar    1  UNL1       -0.0002
     13 C          66.4419   94.8083   10.4306 C.ar    1  UNL1       -0.0000
     14 C          66.4312   95.0586   11.9096 C.ar    1  UNL1       -0.0002
     15 C          65.9418   93.9945   12.8468 C.ar    1  UNL1       -0.0017
     16 C          66.1326   91.8873   14.1551 C.ar    1  UNL1        0.0056
     17 C          65.8924   92.4449   15.5267 C.ar    1  UNL1       -0.0017
     18 C          67.0513   92.7161   16.4397 C.ar    1  UNL1       -0.0002
     19 C          68.4504   92.4295   15.9811 C.ar    1  UNL1       -0.0000
     20 C          68.6906   91.8718   14.6095 C.ar    1  UNL1       -0.0002
     21 C          67.5317   91.6007   13.6965 C.ar    1  UNL1       -0.0017
     22 C          63.0163   87.3599   16.9909 C.3     1  UNL1        0.0725
     23 C          63.3802   85.9245   16.7516 C.3     1  UNL1        0.0254
     24 C          62.6758   85.1400   15.6846 C.3     1  UNL1        0.0706
     25 C          63.4136   84.0791   14.9231 C.2     1  UNL1        0.1731
     26 O          64.1284   82.9862   15.6611 O.2     1  UNL1       -0.2913
     27 C          63.4828   84.1750   10.4247 C.ar    1  UNL1       -0.0178
     28 C          64.3074   83.1649   11.1661 C.ar    1  UNL1       -0.0038
     29 C          64.2844   83.1329   12.6656 C.ar    1  UNL1        0.0025
     30 C          63.4367   84.1111   13.4236 C.ar    1  UNL1        0.0347
     31 C          62.6121   85.1211   12.6822 C.ar    1  UNL1        0.0025
     32 C          62.6352   85.1531   11.1827 C.ar    1  UNL1       -0.0038
     33 C          63.5059   84.2070    8.9252 C.3     1  UNL1        0.0523
     34 C          62.1243   84.9347    6.8488 C.2     1  UNL1       -0.0046
     35 C          62.7264   85.2532    8.1852 C.2     1  UNL1       -0.0214
@<TRIPOS>BOND
     1    34    35    2
     2    35    33    1
     3    33    27    1
     4    27    28   ar
     5    28    29   ar
     6    29    30   ar
     7    30    25    1
     8    25    26    2
     9    25    24    1
    10    24    23    1
    11    23    22    1
    12    22     1    1
    13     1     2    1
    14     2     3    1
    15     3     4    1
    16     4     7    1
    17     7     8    1
    18     7    10    1
    19    10    11   ar
    20    11    12   ar
    21    12    13   ar
    22    13    14   ar
    23    14    15   ar
    24     7    16    1
    25    16    17   ar
    26    17    18   ar
    27    18    19   ar
    28    19    20   ar
    29    20    21   ar
    30     4     5    1
    31     5     6    1
    32    30    31   ar
    33    31    32   ar
    34    32    27   ar
    35     6     1    1
    36    15    10   ar
    37    21    16   ar
    38     8     9    1
@<TRIPOS>MOLECULE
*****
 35 38 0 0 0
SMALL
GASTEIGER

@<TRIPOS>ATOM
      1 N          62.3620   90.6916   10.5738 N.3     1  UNL1       -0.2727
      2 C          62.5073   90.1744   11.9743 C.3     1  UNL1        0.0722
      3 C          63.6735   90.6028   12.8147 C.3     1  UNL1        0.0204
      4 C          64.6945   91.5483   12.2547 C.3     1  UNL1        0.0353
      5 C          64.5492   92.0655   10.8542 C.3     1  UNL1        0.0204
      6 C          63.3829   91.6372   10.0137 C.3     1  UNL1        0.0722
      7 C          65.8607   91.9767   13.0952 C.3     1  UNL1        0.1256
      8 O          65.3346   91.1627   14.2400 O.3     1  UNL1       -0.3786
      9 H          65.4798   91.6417   15.0709 H       1  UNL1        0.2111
     10 C          67.0270   92.4050   13.9356 C.ar    1  UNL1        0.0056
     11 C          68.3987   91.8744   13.6412 C.ar    1  UNL1       -0.0017
     12 C          69.5649   92.3027   14.4817 C.ar    1  UNL1       -0.0002
     13 C          69.3594   93.2617   15.6166 C.ar    1  UNL1       -0.0000
     14 C          67.9877   93.7925   15.9111 C.ar    1  UNL1       -0.0002
     15 C          66.8214   93.3641   15.0706 C.ar    1  UNL1       -0.0017
     16 C          66.3868   92.7907   11.9503 C.ar    1  UNL1        0.0056
     17 C          66.0900   94.2591   11.8753 C.ar    1  UNL1       -0.0017
     18 C          66.6160   95.0731   10.7305 C.ar    1  UNL1       -0.0002
     19 C          67.4389   94.4187    9.6606 C.ar    1  UNL1       -0.0000
     20 C          67.7357   92.9503    9.7357 C.ar    1  UNL1       -0.0002
     21 C          67.2096   92.1363   10.8805 C.ar    1  UNL1       -0.0017
     22 C          61.1957   90.2633    9.7333 C.3     1  UNL1        0.0725
     23 C          59.9488   89.7470   10.3882 C.3     1  UNL1        0.0254
     24 C          59.6797   88.2720   10.4309 C.3     1  UNL1        0.0706
     25 C          60.1784   87.3864    9.3278 C.2     1  UNL1        0.1731
     26 O          59.6319   87.5380    7.9392 O.2     1  UNL1       -0.2913
     27 C          63.3140   84.2744   10.1844 C.ar    1  UNL1       -0.0178
     28 C          62.4406   84.7839   11.2924 C.ar    1  UNL1       -0.0038
     29 C          61.3954   85.8213   11.0069 C.ar    1  UNL1        0.0025
     30 C          61.2236   86.3490    9.6134 C.ar    1  UNL1        0.0347
     31 C          62.0969   85.8395    8.5054 C.ar    1  UNL1        0.0025
     32 C          63.1421   84.8021    8.7909 C.ar    1  UNL1       -0.0038
     33 C          64.3591   83.2371   10.4700 C.3     1  UNL1        0.0523
     34 C          63.1158   81.3081   11.6879 C.2     1  UNL1       -0.0046
     35 C          63.9753   81.7896   10.5567 C.2     1  UNL1       -0.0214
@<TRIPOS>BOND
     1    34    35    2
     2    35    33    1
     3    33    27    1
     4    27    28   ar
     5    28    29   ar
     6    29    30   ar
     7    30    25    1
     8    25    26    2
     9    25    24    1
    10    24    23    1
    11    23    22    1
    12    22     1    1
    13     1     2    1
    14     2     3    1
    15     3     4    1
    16     4     7    1
    17     7     8    1
    18     7    10    1
    19    10    11   ar
    20    11    12   ar
    21    12    13   ar
    22    13    14   ar
    23    14    15   ar
    24     7    16    1
    25    16    17   ar
    26    17    18   ar
    27    18    19   ar
    28    19    20   ar
    29    20    21   ar
    30     4     5    1
    31     5     6    1
    32    30    31   ar
    33    31    32   ar
    34    32    27   ar
    35     6     1    1
    36    15    10   ar
    37    21    16   ar
    38     8     9    1
@<TRIPOS>MOLECULE
*****
 35 38 0 0 0
SMALL
GASTEIGER

@<TRIPOS>ATOM
      1 N          63.2064   89.8569   15.0695 N.3     1  UNL1       -0.2727
      2 C          64.2065   90.8565   15.5699 C.3     1  UNL1        0.0722
      3 C          64.9890   91.6866   14.5959 C.3     1  UNL1        0.0204
      4 C          64.7713   91.5171   13.1216 C.3     1  UNL1        0.0353
      5 C          63.7711   90.5175   12.6211 C.3     1  UNL1        0.0204
      6 C          62.9886   89.6873   13.5951 C.3     1  UNL1        0.0722
      7 C          65.5537   92.3473   12.1476 C.3     1  UNL1        0.1256
      8 O          64.4879   92.1381   11.1131 O.3     1  UNL1       -0.3786
      9 H          64.9004   92.0208   10.2430 H       1  UNL1        0.2111
     10 C          66.3362   93.1774   11.1736 C.ar    1  UNL1        0.0056
     11 C          66.1334   94.6627   11.1216 C.ar    1  UNL1       -0.0017
     12 C          66.9159   95.4928   10.1476 C.ar    1  UNL1       -0.0002
     13 C          67.9010   94.8377    9.2256 C.ar    1  UNL1       -0.0000
     14 C          68.1038   93.3523    9.2776 C.ar    1  UNL1       -0.0002
     15 C          67.3214   92.5222   10.2516 C.ar    1  UNL1       -0.0017
     16 C          66.6196   92.5564   13.1821 C.ar    1  UNL1        0.0056
     17 C          67.7765   91.6058   13.2699 C.ar    1  UNL1       -0.0017
     18 C          68.8423   91.8150   14.3044 C.ar    1  UNL1       -0.0002
     19 C          68.7512   92.9748   15.2511 C.ar    1  UNL1       -0.0000
     20 C          67.5943   93.9255   15.1634 C.ar    1  UNL1       -0.0002
     21 C          66.5285   93.7163   14.1289 C.ar    1  UNL1       -0.0017
     22 C          62.4239   89.0267   16.0435 C.3     1  UNL1        0.0725
     23 C          63.1113   88.4117   17.2266 C.3     1  UNL1        0.0254
     24 C          63.3708   86.9347   17.2589 C.3     1  UNL1        0.0706
     25 C          62.4155   85.9906   16.5911 C.2     1  UNL1        0.1731
     26 O          60.9632   86.0035   16.9659 O.2     1  UNL1       -0.2913
     27 C          63.9066   83.1194   13.4634 C.ar    1  UNL1       -0.0178
     28 C          64.6520   84.3940   13.7278 C.ar    1  UNL1       -0.0038
     29 C          64.1549   85.3510   14.7703 C.ar    1  UNL1        0.0025
     30 C          62.9125   85.0335   15.5485 C.ar    1  UNL1        0.0347
     31 C          62.1672   83.7590   15.2842 C.ar    1  UNL1        0.0025
     32 C          62.6643   82.8019   14.2416 C.ar    1  UNL1       -0.0038
     33 C          64.4037   82.1624   12.4208 C.3     1  UNL1        0.0523
     34 C          64.0727   83.3318   10.1245 C.2     1  UNL1       -0.0046
     35 C          63.8078   82.1769   11.0443 C.2     1  UNL1       -0.0214
@<TRIPOS>BOND
     1    34    35    2
     2    35    33    1
     3    33    27    1
     4    27    28   ar
     5    28    29   ar
     6    29    30   ar
     7    30    25    1
     8    25    26    2
     9    25    24    1
    10    24    23    1
    11    23    22    1
    12    22     1    1
    13     1     2    1
    14     2     3    1
    15     3     4    1
    16     4     7    1
    17     7     8    1
    18     7    10    1
    19    10    11   ar
    20    11    12   ar
    21    12    13   ar
    22    13    14   ar
    23    14    15   ar
    24     7    16    1
    25    16    17   ar
    26    17    18   ar
    27    18    19   ar
    28    19    20   ar
    29    20    21   ar
    30     4     5    1
    31     5     6    1
    32    30    31   ar
    33    31    32   ar
    34    32    27   ar
    35     6     1    1
    36    15    10   ar
    37    21    16   ar
    38     8     9    1
@<TRIPOS>MOLECULE
*****
 35 38 0 0 0
SMALL
GASTEIGER

@<TRIPOS>ATOM
      1 N          63.2267   89.9607   15.2327 N.3     1  UNL1       -0.2727
      2 C          64.2396   90.9651   15.6964 C.3     1  UNL1        0.0722
      3 C          65.0192   91.7623   14.6930 C.3     1  UNL1        0.0204
      4 C          64.7859   91.5550   13.2259 C.3     1  UNL1        0.0353
      5 C          63.7729   90.5506   12.7620 C.3     1  UNL1        0.0204
      6 C          62.9933   89.7534   13.7654 C.3     1  UNL1        0.0722
      7 C          65.5654   92.3522   12.2225 C.3     1  UNL1        0.1256
      8 O          64.4871   92.1257   11.2047 O.3     1  UNL1       -0.3786
      9 H          64.8894   91.9819   10.3339 H       1  UNL1        0.2111
     10 C          66.3450   93.1493   11.2191 C.ar    1  UNL1        0.0056
     11 C          66.1455   94.6328   11.1214 C.ar    1  UNL1       -0.0017
     12 C          66.9251   95.4299   10.1180 C.ar    1  UNL1       -0.0002
     13 C          67.9042   94.7436    9.2123 C.ar    1  UNL1       -0.0000
     14 C          68.1037   93.2601    9.3099 C.ar    1  UNL1       -0.0002
     15 C          67.3241   92.4630   10.3133 C.ar    1  UNL1       -0.0017
     16 C          66.6438   92.5786   13.2402 C.ar    1  UNL1        0.0056
     17 C          66.5695   93.7600   14.1615 C.ar    1  UNL1       -0.0017
     18 C          67.6479   93.9865   15.1792 C.ar    1  UNL1       -0.0002
     19 C          68.8006   93.0316   15.2757 C.ar    1  UNL1       -0.0000
     20 C          68.8749   91.8502   14.3545 C.ar    1  UNL1       -0.0002
     21 C          67.7965   91.6237   13.3367 C.ar    1  UNL1       -0.0017
     22 C          62.4471   89.1636   16.2361 C.3     1  UNL1        0.0725
     23 C          63.1516   88.1809   17.1239 C.3     1  UNL1        0.0254
     24 C          63.2046   86.7308   16.7440 C.3     1  UNL1        0.0706
     25 C          63.9395   86.3059   15.5074 C.2     1  UNL1        0.1731
     26 O          65.0059   87.1877   14.9285 O.2     1  UNL1       -0.2913
     27 C          62.9453   82.3857   13.5343 C.ar    1  UNL1       -0.0178
     28 C          62.1834   82.8290   14.7479 C.ar    1  UNL1       -0.0038
     29 C          62.5148   84.1357   15.4056 C.ar    1  UNL1        0.0025
     30 C          63.6081   84.9991   14.8497 C.ar    1  UNL1        0.0347
     31 C          64.3700   84.5559   13.6360 C.ar    1  UNL1        0.0025
     32 C          64.0385   83.2491   12.9783 C.ar    1  UNL1       -0.0038
     33 C          62.6138   81.0789   12.8766 C.3     1  UNL1        0.0523
     34 C          60.4326   80.2839   14.0428 C.2     1  UNL1       -0.0046
     35 C          61.8530   80.0304   13.6327 C.2     1  UNL1       -0.0214
@<TRIPOS>BOND
     1    34    35    2
     2    35    33    1
     3    33    27    1
     4    27    28   ar
     5    28    29   ar
     6    29    30   ar
     7    30    25    1
     8    25    26    2
     9    25    24    1
    10    24    23    1
    11    23    22    1
    12    22     1    1
    13     1     2    1
    14     2     3    1
    15     3     4    1
    16     4     7    1
    17     7     8    1
    18     7    10    1
    19    10    11   ar
    20    11    12   ar
    21    12    13   ar
    22    13    14   ar
    23    14    15   ar
    24     7    16    1
    25    16    17   ar
    26    17    18   ar
    27    18    19   ar
    28    19    20   ar
    29    20    21   ar
    30     4     5    1
    31     5     6    1
    32    30    31   ar
    33    31    32   ar
    34    32    27   ar
    35     6     1    1
    36    15    10   ar
    37    21    16   ar
    38     8     9    1
@<TRIPOS>MOLECULE
*****
 35 38 0 0 0
SMALL
GASTEIGER

@<TRIPOS>ATOM
      1 N          63.4885   89.4800   15.6224 N.3     1  UNL1       -0.2727
      2 C          63.7479   88.9879   14.2294 C.3     1  UNL1        0.0722
      3 C          64.4138   89.8852   13.2288 C.3     1  UNL1        0.0204
      4 C          64.8204   91.2747   13.6211 C.3     1  UNL1        0.0353
      5 C          64.5611   91.7669   15.0141 C.3     1  UNL1        0.0204
      6 C          63.8951   90.8696   16.0148 C.3     1  UNL1        0.0722
      7 C          65.4864   92.1720   12.6204 C.3     1  UNL1        0.1256
      8 O          64.3657   91.9261   11.6541 O.3     1  UNL1       -0.3786
      9 H          64.7236   91.8539   10.7555 H       1  UNL1        0.2111
     10 C          66.1523   93.0693   11.6198 C.ar    1  UNL1        0.0056
     11 C          66.9612   92.4780   10.5036 C.ar    1  UNL1       -0.0017
     12 C          67.6271   93.3753    9.5029 C.ar    1  UNL1       -0.0002
     13 C          67.4842   94.8639    9.6184 C.ar    1  UNL1       -0.0000
     14 C          66.6753   95.4554   10.7347 C.ar    1  UNL1       -0.0002
     15 C          66.0093   94.5580   11.7354 C.ar    1  UNL1       -0.0017
     16 C          66.6070   92.4179   13.5867 C.ar    1  UNL1        0.0056
     17 C          67.8556   91.5898   13.5137 C.ar    1  UNL1       -0.0017
     18 C          68.9762   91.8357   14.4799 C.ar    1  UNL1       -0.0002
     19 C          68.8483   92.9096   15.5193 C.ar    1  UNL1       -0.0000
     20 C          67.5997   93.7377   15.5923 C.ar    1  UNL1       -0.0002
     21 C          66.4791   93.4918   14.6261 C.ar    1  UNL1       -0.0017
     22 C          62.8226   88.5827   16.6231 C.3     1  UNL1        0.0725
     23 C          63.4286   87.2518   16.9573 C.3     1  UNL1        0.0254
     24 C          63.0803   86.0428   16.1406 C.3     1  UNL1        0.0706
     25 C          64.0957   85.4483   15.2103 C.2     1  UNL1        0.1731
     26 O          65.4568   86.0670   15.0912 O.2     1  UNL1       -0.2913
     27 C          63.0581   81.8082   12.7765 C.ar    1  UNL1       -0.0178
     28 C          62.4092   82.0281   14.1109 C.ar    1  UNL1       -0.0038
     29 C          62.7551   83.2415   14.9221 C.ar    1  UNL1        0.0025
     30 C          63.7498   84.2349   14.3990 C.ar    1  UNL1        0.0347
     31 C          64.3986   84.0149   13.0647 C.ar    1  UNL1        0.0025
     32 C          64.0528   82.8015   12.2534 C.ar    1  UNL1       -0.0038
     33 C          62.7122   80.5948   11.9653 C.3     1  UNL1        0.0523
     34 C          62.7674   79.3072    9.7094 C.2     1  UNL1       -0.0046
     35 C          63.0617   80.5427   10.5075 C.2     1  UNL1       -0.0214
@<TRIPOS>BOND
     1    34    35    2
     2    35    33    1
     3    33    27    1
     4    27    28   ar
     5    28    29   ar
     6    29    30   ar
     7    30    25    1
     8    25    26    2
     9    25    24    1
    10    24    23    1
    11    23    22    1
    12    22     1    1
    13     1     2    1
    14     2     3    1
    15     3     4    1
    16     4     7    1
    17     7     8    1
    18     7    10    1
    19    10    11   ar
    20    11    12   ar
    21    12    13   ar
    22    13    14   ar
    23    14    15   ar
    24     7    16    1
    25    16    17   ar
    26    17    18   ar
    27    18    19   ar
    28    19    20   ar
    29    20    21   ar
    30     4     5    1
    31     5     6    1
    32    30    31   ar
    33    31    32   ar
    34    32    27   ar
    35     6     1    1
    36    15    10   ar
    37    21    16   ar
    38     8     9    1
@<TRIPOS>MOLECULE
*****
 35 38 0 0 0
SMALL
GASTEIGER

@<TRIPOS>ATOM
      1 N          59.9897   91.3406    4.8584 N.3     1  UNL1       -0.2727
      2 C          59.3756   92.4733    4.0905 C.3     1  UNL1        0.0722
      3 C          60.1603   93.1618    3.0134 C.3     1  UNL1        0.0204
      4 C          61.5592   92.7176    2.7042 C.3     1  UNL1        0.0353
      5 C          62.1735   91.5848    3.4722 C.3     1  UNL1        0.0204
      6 C          61.3887   90.8963    4.5492 C.3     1  UNL1        0.0722
      7 C          62.3440   93.4060    1.6271 C.3     1  UNL1        0.1256
      8 O          63.5820   93.3117    2.4688 O.3     1  UNL1       -0.3786
      9 H          64.1020   94.1247    2.3714 H       1  UNL1        0.2111
     10 C          63.1288   94.0945    0.5500 C.ar    1  UNL1        0.0056
     11 C          63.8651   95.3654    0.8544 C.ar    1  UNL1       -0.0017
     12 C          64.6499   96.0539   -0.2227 C.ar    1  UNL1       -0.0002
     13 C          64.6983   95.4715   -1.6041 C.ar    1  UNL1       -0.0000
     14 C          63.9620   94.2006   -1.9086 C.ar    1  UNL1       -0.0002
     15 C          63.1772   93.5121   -0.8315 C.ar    1  UNL1       -0.0017
     16 C          61.1060   93.5004    0.7854 C.ar    1  UNL1        0.0056
     17 C          60.4112   94.8192    0.6186 C.ar    1  UNL1       -0.0017
     18 C          59.1732   94.9136   -0.2231 C.ar    1  UNL1       -0.0002
     19 C          58.6300   93.6891   -0.8979 C.ar    1  UNL1       -0.0000
     20 C          59.3248   92.3703   -0.7311 C.ar    1  UNL1       -0.0002
     21 C          60.5628   92.2759    0.1106 C.ar    1  UNL1       -0.0017
     22 C          59.2049   90.6521    5.9355 C.3     1  UNL1        0.0725
     23 C          59.4376   89.1977    6.2199 C.3     1  UNL1        0.0254
     24 C          59.8235   88.7559    7.6004 C.3     1  UNL1        0.0706
     25 C          59.5747   87.3410    8.0320 C.2     1  UNL1        0.1731
     26 O          58.1996   86.7529    7.9176 O.2     1  UNL1       -0.2913
     27 C          62.9535   84.8610    9.6700 C.ar    1  UNL1       -0.0178
     28 C          62.7374   84.9489    8.1883 C.ar    1  UNL1       -0.0038
     29 C          61.6112   85.7755    7.6423 C.ar    1  UNL1        0.0025
     30 C          60.7010   86.5144    8.5780 C.ar    1  UNL1        0.0347
     31 C          60.9170   86.4265   10.0597 C.ar    1  UNL1        0.0025
     32 C          62.0433   85.5999   10.6057 C.ar    1  UNL1       -0.0038
     33 C          64.0798   84.0344   10.2160 C.3     1  UNL1        0.0523
     34 C          63.2008   81.9130   11.4314 C.2     1  UNL1       -0.0046
     35 C          63.9466   82.5423   10.2922 C.2     1  UNL1       -0.0214
@<TRIPOS>BOND
     1    34    35    2
     2    35    33    1
     3    33    27    1
     4    27    28   ar
     5    28    29   ar
     6    29    30   ar
     7    30    25    1
     8    25    26    2
     9    25    24    1
    10    24    23    1
    11    23    22    1
    12    22     1    1
    13     1     2    1
    14     2     3    1
    15     3     4    1
    16     4     7    1
    17     7     8    1
    18     7    10    1
    19    10    11   ar
    20    11    12   ar
    21    12    13   ar
    22    13    14   ar
    23    14    15   ar
    24     7    16    1
    25    16    17   ar
    26    17    18   ar
    27    18    19   ar
    28    19    20   ar
    29    20    21   ar
    30     4     5    1
    31     5     6    1
    32    30    31   ar
    33    31    32   ar
    34    32    27   ar
    35     6     1    1
    36    15    10   ar
    37    21    16   ar
    38     8     9    1
@<TRIPOS>MOLECULE
*****
 35 38 0 0 0
SMALL
GASTEIGER

@<TRIPOS>ATOM
      1 N          63.3032   88.0774   16.2470 N.3     1  UNL1       -0.2727
      2 C          64.1940   87.6404   15.1220 C.3     1  UNL1        0.0722
      3 C          64.7988   88.6612   14.2044 C.3     1  UNL1        0.0204
      4 C          64.5128   90.1190   14.4116 C.3     1  UNL1        0.0353
      5 C          63.6220   90.5561   15.5367 C.3     1  UNL1        0.0204
      6 C          63.0172   89.5352   16.4543 C.3     1  UNL1        0.0722
      7 C          65.1176   91.1399   13.4940 C.3     1  UNL1        0.1256
      8 O          66.0842   91.5352   14.5708 O.3     1  UNL1       -0.3786
      9 H          66.2106   92.4968   14.5547 H       1  UNL1        0.2111
     10 C          65.7224   92.1607   12.5763 C.ar    1  UNL1        0.0056
     11 C          66.3330   91.7314   11.2752 C.ar    1  UNL1       -0.0017
     12 C          66.9378   92.7522   10.3576 C.ar    1  UNL1       -0.0002
     13 C          66.9320   94.2023   10.7409 C.ar    1  UNL1       -0.0000
     14 C          66.3213   94.6317   12.0421 C.ar    1  UNL1       -0.0002
     15 C          65.7165   93.6109   12.9597 C.ar    1  UNL1       -0.0017
     16 C          64.1510   90.7445   12.4172 C.ar    1  UNL1        0.0056
     17 C          63.5327   89.3780   12.4292 C.ar    1  UNL1       -0.0017
     18 C          62.5661   88.9826   11.3524 C.ar    1  UNL1       -0.0002
     19 C          62.2179   89.9538   10.2636 C.ar    1  UNL1       -0.0000
     20 C          62.8363   91.3204   10.2516 C.ar    1  UNL1       -0.0002
     21 C          63.8028   91.7157   11.3284 C.ar    1  UNL1       -0.0017
     22 C          62.6985   87.0565   17.1647 C.3     1  UNL1        0.0725
     23 C          63.0375   85.6047   16.9991 C.3     1  UNL1        0.0254
     24 C          62.4559   84.8242   15.8578 C.3     1  UNL1        0.0706
     25 C          63.3257   83.8944   15.0647 C.2     1  UNL1        0.1731
     26 O          64.1613   82.8663   15.7681 O.2     1  UNL1       -0.2913
     27 C          63.4281   84.1892   10.5756 C.ar    1  UNL1       -0.0178
     28 C          62.5769   85.1348   11.3701 C.ar    1  UNL1       -0.0038
     29 C          62.5427   85.0365   12.8664 C.ar    1  UNL1        0.0025
     30 C          63.3598   83.9926   13.5683 C.ar    1  UNL1        0.0347
     31 C          64.2110   83.0471   12.7739 C.ar    1  UNL1        0.0025
     32 C          64.2452   83.1453   11.2775 C.ar    1  UNL1       -0.0038
     33 C          63.4622   84.2874    9.0792 C.3     1  UNL1        0.0523
     34 C          61.9927   85.1083    7.1001 C.2     1  UNL1       -0.0046
     35 C          62.7185   85.3882    8.3827 C.2     1  UNL1       -0.0214
@<TRIPOS>BOND
     1    34    35    2
     2    35    33    1
     3    33    27    1
     4    27    28   ar
     5    28    29   ar
     6    29    30   ar
     7    30    25    1
     8    25    26    2
     9    25    24    1
    10    24    23    1
    11    23    22    1
    12    22     1    1
    13     1     2    1
    14     2     3    1
    15     3     4    1
    16     4     7    1
    17     7     8    1
    18     7    10    1
    19    10    11   ar
    20    11    12   ar
    21    12    13   ar
    22    13    14   ar
    23    14    15   ar
    24     7    16    1
    25    16    17   ar
    26    17    18   ar
    27    18    19   ar
    28    19    20   ar
    29    20    21   ar
    30     4     5    1
    31     5     6    1
    32    30    31   ar
    33    31    32   ar
    34    32    27   ar
    35     6     1    1
    36    15    10   ar
    37    21    16   ar
    38     8     9    1
