@<TRIPOS>MOLECULE
*****
 21 23 0 0 0
SMALL
GASTEIGER

@<TRIPOS>ATOM
      1 C          62.2840   89.6394   11.2752 C.3     1  UNL1        0.0591
      2 C          61.3309   89.8897   10.1443 C.3     1  UNL1        0.0418
      3 C          60.7782   88.7367    9.3600 C.ar    1  UNL1       -0.0245
      4 C          59.8251   88.9870    8.2292 C.ar    1  UNL1       -0.0045
      5 C          59.2725   87.8340    7.4450 C.ar    1  UNL1       -0.0003
      6 C          59.6730   86.4306    7.7916 C.ar    1  UNL1       -0.0003
      7 C          60.6261   86.1802    8.9224 C.ar    1  UNL1       -0.0043
      8 C          61.1787   87.3333    9.7066 C.ar    1  UNL1       -0.0223
      9 C          62.1319   87.0830   10.8375 C.3     1  UNL1        0.0456
     10 C          62.6845   88.2360   11.6218 C.3     1  UNL1        0.0248
     11 C          62.5324   85.6796   11.1841 C.ar    1  UNL1       -0.0175
     12 C          63.1444   84.7945   10.1390 C.ar    1  UNL1       -0.0030
     13 C          63.5449   83.3911   10.4856 C.ar    1  UNL1        0.0119
     14 C          63.3334   82.8729   11.8773 C.ar    1  UNL1        0.0682
     15 CL         63.7339   81.4695   12.2239 Cl      1  UNL1       -0.0814
     16 C          62.7215   83.7580   12.9223 C.ar    1  UNL1        0.0679
     17 CL         62.5101   83.2397   14.3141 Cl      1  UNL1       -0.0814
     18 C          62.3210   85.1613   12.5757 C.ar    1  UNL1        0.0083
     19 C          63.8897   90.5550   13.1010 C.3     1  UNL1        0.0859
     20 N          62.8367   90.7925   12.0595 N.3     1  UNL1       -0.2971
     21 H          63.2331   91.4453   11.3834 H       1  UNL1        0.1233
@<TRIPOS>BOND
     1    19    20    1
     2     1    20    1
     3     1     2    1
     4     2     3    1
     5     3     4   ar
     6     4     5   ar
     7     5     6   ar
     8     6     7   ar
     9     7     8   ar
    10     8     9    1
    11     9    11    1
    12    11    12   ar
    13    12    13   ar
    14    13    14   ar
    15    14    15    1
    16    14    16   ar
    17    16    17    1
    18    16    18   ar
    19     9    10    1
    20    10     1    1
    21     8     3   ar
    22    18    11   ar
    23    20    21    1
@<TRIPOS>MOLECULE
*****
 21 23 0 0 0
SMALL
GASTEIGER

@<TRIPOS>ATOM
      1 C          64.1445   85.6760   14.3473 C.3     1  UNL1        0.0591
      2 C          64.5760   87.0354   14.8117 C.3     1  UNL1        0.0418
      3 C          64.2048   88.2523   14.0170 C.ar    1  UNL1       -0.0245
      4 C          64.6362   89.6117   14.4815 C.ar    1  UNL1       -0.0045
      5 C          64.2650   90.8285   13.6868 C.ar    1  UNL1       -0.0003
      6 C          63.4622   90.6859   12.4278 C.ar    1  UNL1       -0.0003
      7 C          63.0307   89.3265   11.9634 C.ar    1  UNL1       -0.0043
      8 C          63.4020   88.1097   12.7580 C.ar    1  UNL1       -0.0223
      9 C          62.9705   86.7502   12.2936 C.3     1  UNL1        0.0456
     10 C          63.3418   85.5333   13.0882 C.3     1  UNL1        0.0248
     11 C          62.1677   86.6075   11.0345 C.ar    1  UNL1       -0.0175
     12 C          60.7923   87.2002   10.9508 C.ar    1  UNL1       -0.0030
     13 C          59.9895   87.0576    9.6918 C.ar    1  UNL1        0.0119
     14 C          60.5622   86.3223    8.5164 C.ar    1  UNL1        0.0682
     15 CL         59.7594   86.1797    7.2573 Cl      1  UNL1       -0.0814
     16 C          61.9376   85.7297    8.6001 C.ar    1  UNL1        0.0679
     17 CL         62.5103   84.9944    7.4247 Cl      1  UNL1       -0.0814
     18 C          62.7403   85.8723    9.8592 C.ar    1  UNL1        0.0083
     19 C          63.7942   83.1643   14.9121 C.3     1  UNL1        0.0859
     20 N          64.5158   84.4590   15.1419 N.3     1  UNL1       -0.2971
     21 H          65.5041   84.2810   14.9634 H       1  UNL1        0.1233
@<TRIPOS>BOND
     1    19    20    1
     2     1    20    1
     3     1     2    1
     4     2     3    1
     5     3     4   ar
     6     4     5   ar
     7     5     6   ar
     8     6     7   ar
     9     7     8   ar
    10     8     9    1
    11     9    11    1
    12    11    12   ar
    13    12    13   ar
    14    13    14   ar
    15    14    15    1
    16    14    16   ar
    17    16    17    1
    18    16    18   ar
    19     9    10    1
    20    10     1    1
    21     8     3   ar
    22    18    11   ar
    23    20    21    1
@<TRIPOS>MOLECULE
*****
 21 23 0 0 0
SMALL
GASTEIGER

@<TRIPOS>ATOM
      1 C          63.6035   90.3581   15.1690 C.3     1  UNL1        0.0591
      2 C          64.7024   91.3394   14.8870 C.3     1  UNL1        0.0418
      3 C          64.9681   91.7838   13.4792 C.ar    1  UNL1       -0.0245
      4 C          66.0670   92.7651   13.1971 C.ar    1  UNL1       -0.0045
      5 C          66.3325   93.2095   11.7894 C.ar    1  UNL1       -0.0003
      6 C          65.4992   92.6727   10.6636 C.ar    1  UNL1       -0.0003
      7 C          64.4003   91.6914   10.9456 C.ar    1  UNL1       -0.0043
      8 C          64.1347   91.2470   12.3534 C.ar    1  UNL1       -0.0223
      9 C          63.0358   90.2657   12.6355 C.3     1  UNL1        0.0456
     10 C          62.7702   89.8213   14.0433 C.3     1  UNL1        0.0248
     11 C          62.2024   89.7289   11.5097 C.ar    1  UNL1       -0.0175
     12 C          60.9891   90.4816   11.0496 C.ar    1  UNL1       -0.0030
     13 C          60.1558   89.9447    9.9239 C.ar    1  UNL1        0.0119
     14 C          60.5357   88.6553    9.2581 C.ar    1  UNL1        0.0682
     15 CL         59.7024   88.1185    8.1323 Cl      1  UNL1       -0.0814
     16 C          61.7490   87.9028    9.7182 C.ar    1  UNL1        0.0679
     17 CL         62.1289   86.6134    9.0524 Cl      1  UNL1       -0.0814
     18 C          62.5823   88.4396   10.8440 C.ar    1  UNL1        0.0083
     19 C          63.0917   88.4637   16.8718 C.3     1  UNL1        0.0859
     20 N          63.3379   89.9137   16.5769 N.3     1  UNL1       -0.2971
     21 H          64.1468   90.1937   17.1316 H       1  UNL1        0.1233
@<TRIPOS>BOND
     1    19    20    1
     2     1    20    1
     3     1     2    1
     4     2     3    1
     5     3     4   ar
     6     4     5   ar
     7     5     6   ar
     8     6     7   ar
     9     7     8   ar
    10     8     9    1
    11     9    11    1
    12    11    12   ar
    13    12    13   ar
    14    13    14   ar
    15    14    15    1
    16    14    16   ar
    17    16    17    1
    18    16    18   ar
    19     9    10    1
    20    10     1    1
    21     8     3   ar
    22    18    11   ar
    23    20    21    1
@<TRIPOS>MOLECULE
*****
 21 23 0 0 0
SMALL
GASTEIGER

@<TRIPOS>ATOM
      1 C          60.1463   88.1828    8.5315 C.3     1  UNL1        0.0591
      2 C          60.5105   89.4648    9.2200 C.3     1  UNL1        0.0418
      3 C          61.4932   89.4546   10.3532 C.ar    1  UNL1       -0.0245
      4 C          61.8573   90.7365   11.0417 C.ar    1  UNL1       -0.0045
      5 C          62.8400   90.7263   12.1749 C.ar    1  UNL1       -0.0003
      6 C          63.4586   89.4341   12.6196 C.ar    1  UNL1       -0.0003
      7 C          63.0944   88.1522   11.9312 C.ar    1  UNL1       -0.0043
      8 C          62.1117   88.1624   10.7980 C.ar    1  UNL1       -0.0223
      9 C          61.7475   86.8805   10.1094 C.3     1  UNL1        0.0456
     10 C          60.7649   86.8907    8.9762 C.3     1  UNL1        0.0248
     11 C          62.3661   85.5883   10.5541 C.ar    1  UNL1       -0.0175
     12 C          63.1741   84.7723    9.5891 C.ar    1  UNL1       -0.0030
     13 C          63.7927   83.4802   10.0338 C.ar    1  UNL1        0.0119
     14 C          63.6031   83.0040   11.4436 C.ar    1  UNL1        0.0682
     15 CL         64.2217   81.7119   11.8883 Cl      1  UNL1       -0.0814
     16 C          62.7951   83.8200   12.4086 C.ar    1  UNL1        0.0679
     17 CL         62.6056   83.3439   13.8184 Cl      1  UNL1       -0.0814
     18 C          62.1766   85.1122   11.9638 C.ar    1  UNL1        0.0083
     19 C          59.1009   89.3699    6.4704 C.3     1  UNL1        0.0859
     20 N          59.1636   88.1930    7.3982 N.3     1  UNL1       -0.2971
     21 H          59.3684   87.3756    6.8235 H       1  UNL1        0.1233
@<TRIPOS>BOND
     1    19    20    1
     2     1    20    1
     3     1     2    1
     4     2     3    1
     5     3     4   ar
     6     4     5   ar
     7     5     6   ar
     8     6     7   ar
     9     7     8   ar
    10     8     9    1
    11     9    11    1
    12    11    12   ar
    13    12    13   ar
    14    13    14   ar
    15    14    15    1
    16    14    16   ar
    17    16    17    1
    18    16    18   ar
    19     9    10    1
    20    10     1    1
    21     8     3   ar
    22    18    11   ar
    23    20    21    1
@<TRIPOS>MOLECULE
*****
 21 23 0 0 0
SMALL
GASTEIGER

@<TRIPOS>ATOM
      1 C          61.6599   87.6799   10.1620 C.3     1  UNL1        0.0591
      2 C          62.3083   88.7573   10.9798 C.3     1  UNL1        0.0418
      3 C          63.0498   88.4029   12.2346 C.ar    1  UNL1       -0.0245
      4 C          63.6982   89.4803   13.0523 C.ar    1  UNL1       -0.0045
      5 C          64.4397   89.1258   14.3071 C.ar    1  UNL1       -0.0003
      6 C          64.5327   87.6939   14.7442 C.ar    1  UNL1       -0.0003
      7 C          63.8843   86.6165   13.9264 C.ar    1  UNL1       -0.0043
      8 C          63.1429   86.9710   12.6717 C.ar    1  UNL1       -0.0223
      9 C          62.4944   85.8935   11.8539 C.3     1  UNL1        0.0456
     10 C          61.7529   86.2480   10.5991 C.3     1  UNL1        0.0248
     11 C          62.5875   84.4616   12.2909 C.ar    1  UNL1       -0.0175
     12 C          62.4173   84.1067   13.7384 C.ar    1  UNL1       -0.0030
     13 C          62.5104   82.6748   14.1754 C.ar    1  UNL1        0.0119
     14 C          62.7736   81.5978   13.1650 C.ar    1  UNL1        0.0682
     15 CL         62.8667   80.1659   13.6020 Cl      1  UNL1       -0.0814
     16 C          62.9438   81.9528   11.7176 C.ar    1  UNL1        0.0679
     17 CL         63.2071   80.8758   10.7072 Cl      1  UNL1       -0.0814
     18 C          62.8507   83.3847   11.2806 C.ar    1  UNL1        0.0083
     19 C          59.8263   87.1383    8.4028 C.3     1  UNL1        0.0859
     20 N          60.9183   88.0344    8.9072 N.3     1  UNL1       -0.2971
     21 H          60.4989   88.9512    9.0620 H       1  UNL1        0.1233
@<TRIPOS>BOND
     1    19    20    1
     2     1    20    1
     3     1     2    1
     4     2     3    1
     5     3     4   ar
     6     4     5   ar
     7     5     6   ar
     8     6     7   ar
     9     7     8   ar
    10     8     9    1
    11     9    11    1
    12    11    12   ar
    13    12    13   ar
    14    13    14   ar
    15    14    15    1
    16    14    16   ar
    17    16    17    1
    18    16    18   ar
    19     9    10    1
    20    10     1    1
    21     8     3   ar
    22    18    11   ar
    23    20    21    1
@<TRIPOS>MOLECULE
*****
 21 23 0 0 0
SMALL
GASTEIGER

@<TRIPOS>ATOM
      1 C          63.4247   84.0152   13.5044 C.3     1  UNL1        0.0591
      2 C          64.0765   85.0816   14.3337 C.3     1  UNL1        0.0418
      3 C          63.9455   86.5231   13.9397 C.ar    1  UNL1       -0.0245
      4 C          64.5973   87.5895   14.7690 C.ar    1  UNL1       -0.0045
      5 C          64.4662   89.0308   14.3749 C.ar    1  UNL1       -0.0003
      6 C          63.6833   89.4057   13.1516 C.ar    1  UNL1       -0.0003
      7 C          63.0315   88.3393   12.3223 C.ar    1  UNL1       -0.0043
      8 C          63.1626   86.8979   12.7164 C.ar    1  UNL1       -0.0223
      9 C          62.5107   85.8314   11.8871 C.3     1  UNL1        0.0456
     10 C          62.6418   84.3901   12.2811 C.3     1  UNL1        0.0248
     11 C          61.7278   86.2063   10.6638 C.ar    1  UNL1       -0.0175
     12 C          60.6535   87.2496   10.7514 C.ar    1  UNL1       -0.0030
     13 C          59.8706   87.6245    9.5281 C.ar    1  UNL1        0.0119
     14 C          60.1620   86.9561    8.2171 C.ar    1  UNL1        0.0682
     15 CL         59.3790   87.3310    6.9938 Cl      1  UNL1       -0.0814
     16 C          61.2362   85.9128    8.1296 C.ar    1  UNL1        0.0679
     17 CL         61.5275   85.2444    6.8187 Cl      1  UNL1       -0.0814
     18 C          62.0191   85.5380    9.3529 C.ar    1  UNL1        0.0083
     19 C          62.3404   81.7933   14.3031 C.3     1  UNL1        0.0859
     20 N          63.5558   82.5737   13.8984 N.3     1  UNL1       -0.2971
     21 H          63.9666   82.0869   13.1018 H       1  UNL1        0.1233
@<TRIPOS>BOND
     1    19    20    1
     2     1    20    1
     3     1     2    1
     4     2     3    1
     5     3     4   ar
     6     4     5   ar
     7     5     6   ar
     8     6     7   ar
     9     7     8   ar
    10     8     9    1
    11     9    11    1
    12    11    12   ar
    13    12    13   ar
    14    13    14   ar
    15    14    15    1
    16    14    16   ar
    17    16    17    1
    18    16    18   ar
    19     9    10    1
    20    10     1    1
    21     8     3   ar
    22    18    11   ar
    23    20    21    1
@<TRIPOS>MOLECULE
*****
 21 23 0 0 0
SMALL
GASTEIGER

@<TRIPOS>ATOM
      1 C          63.1379   83.3743   12.6293 C.3     1  UNL1        0.0591
      2 C          63.8797   84.1212   13.6979 C.3     1  UNL1        0.0418
      3 C          63.8828   85.6213   13.6999 C.ar    1  UNL1       -0.0245
      4 C          64.6246   86.3682   14.7684 C.ar    1  UNL1       -0.0045
      5 C          64.6277   87.8682   14.7705 C.ar    1  UNL1       -0.0003
      6 C          63.8891   88.6212   13.7040 C.ar    1  UNL1       -0.0003
      7 C          63.1473   87.8742   12.6355 C.ar    1  UNL1       -0.0043
      8 C          63.1442   86.3743   12.6334 C.ar    1  UNL1       -0.0223
      9 C          62.4024   85.6272   11.5649 C.3     1  UNL1        0.0456
     10 C          62.3992   84.1273   11.5629 C.3     1  UNL1        0.0248
     11 C          61.6637   86.3802   10.4984 C.ar    1  UNL1       -0.0175
     12 C          61.4049   85.7367    9.1684 C.ar    1  UNL1       -0.0030
     13 C          60.6662   86.4897    8.1019 C.ar    1  UNL1        0.0119
     14 C          60.1864   87.8862    8.3655 C.ar    1  UNL1        0.0682
     15 CL         59.4477   88.6392    7.2990 Cl      1  UNL1       -0.0814
     16 C          60.4452   88.5297    9.6954 C.ar    1  UNL1        0.0679
     17 CL         59.9654   89.9263    9.9590 Cl      1  UNL1       -0.0814
     18 C          61.1839   87.7767   10.7619 C.ar    1  UNL1        0.0083
     19 C          62.0792   81.1254   13.3856 C.3     1  UNL1        0.0859
     20 N          63.1347   81.8742   12.6273 N.3     1  UNL1       -0.2971
     21 H          63.0611   81.5813   11.6530 H       1  UNL1        0.1233
@<TRIPOS>BOND
     1    19    20    1
     2     1    20    1
     3     1     2    1
     4     2     3    1
     5     3     4   ar
     6     4     5   ar
     7     5     6   ar
     8     6     7   ar
     9     7     8   ar
    10     8     9    1
    11     9    11    1
    12    11    12   ar
    13    12    13   ar
    14    13    14   ar
    15    14    15    1
    16    14    16   ar
    17    16    17    1
    18    16    18   ar
    19     9    10    1
    20    10     1    1
    21     8     3   ar
    22    18    11   ar
    23    20    21    1
@<TRIPOS>MOLECULE
*****
 21 23 0 0 0
SMALL
GASTEIGER

@<TRIPOS>ATOM
      1 C          60.7698   86.9243    9.0402 C.3     1  UNL1        0.0591
      2 C          61.0169   88.4003    9.1421 C.3     1  UNL1        0.0418
      3 C          61.8540   88.9451   10.2613 C.ar    1  UNL1       -0.0245
      4 C          62.1010   90.4211   10.3632 C.ar    1  UNL1       -0.0045
      5 C          62.9381   90.9658   11.4824 C.ar    1  UNL1       -0.0003
      6 C          63.5280   90.0346   12.4996 C.ar    1  UNL1       -0.0003
      7 C          63.2810   88.5587   12.3977 C.ar    1  UNL1       -0.0043
      8 C          62.4439   88.0139   11.2785 C.ar    1  UNL1       -0.0223
      9 C          62.1968   86.5379   11.1766 C.3     1  UNL1        0.0456
     10 C          61.3598   85.9931   10.0574 C.3     1  UNL1        0.0248
     11 C          62.7868   85.6067   12.1938 C.ar    1  UNL1       -0.0175
     12 C          63.5451   86.1581   13.3647 C.ar    1  UNL1       -0.0030
     13 C          64.1351   85.2268   14.3819 C.ar    1  UNL1        0.0119
     14 C          63.9667   83.7442   14.2283 C.ar    1  UNL1        0.0682
     15 CL         64.5567   82.8130   15.2455 Cl      1  UNL1       -0.0814
     16 C          63.2084   83.1929   13.0574 C.ar    1  UNL1        0.0679
     17 CL         63.0401   81.7103   12.9037 Cl      1  UNL1       -0.0814
     18 C          62.6185   84.1241   12.0402 C.ar    1  UNL1        0.0083
     19 C          60.4930   85.3296    7.0078 C.3     1  UNL1        0.0859
     20 N          59.9327   86.3795    7.9209 N.3     1  UNL1       -0.2971
     21 H          59.0946   85.9832    8.3461 H       1  UNL1        0.1233
@<TRIPOS>BOND
     1    19    20    1
     2     1    20    1
     3     1     2    1
     4     2     3    1
     5     3     4   ar
     6     4     5   ar
     7     5     6   ar
     8     6     7   ar
     9     7     8   ar
    10     8     9    1
    11     9    11    1
    12    11    12   ar
    13    12    13   ar
    14    13    14   ar
    15    14    15    1
    16    14    16   ar
    17    16    17    1
    18    16    18   ar
    19     9    10    1
    20    10     1    1
    21     8     3   ar
    22    18    11   ar
    23    20    21    1
@<TRIPOS>MOLECULE
*****
 21 23 0 0 0
SMALL
GASTEIGER

@<TRIPOS>ATOM
      1 C          63.8450   88.7317   14.3802 C.3     1  UNL1        0.0591
      2 C          64.5002   90.0624   14.1564 C.3     1  UNL1        0.0418
      3 C          64.3677   90.7499   12.8298 C.ar    1  UNL1       -0.0245
      4 C          65.0228   92.0806   12.6060 C.ar    1  UNL1       -0.0045
      5 C          64.8903   92.7681   11.2794 C.ar    1  UNL1       -0.0003
      6 C          64.1026   92.1249   10.1767 C.ar    1  UNL1       -0.0003
      7 C          63.4475   90.7942   10.4005 C.ar    1  UNL1       -0.0043
      8 C          63.5800   90.1068   11.7271 C.ar    1  UNL1       -0.0223
      9 C          62.9249   88.7760   11.9509 C.3     1  UNL1        0.0456
     10 C          63.0574   88.0886   13.2775 C.3     1  UNL1        0.0248
     11 C          62.1373   88.1329   10.8482 C.ar    1  UNL1       -0.0175
     12 C          62.2029   86.6478   10.6474 C.ar    1  UNL1       -0.0030
     13 C          61.4152   86.0046    9.5447 C.ar    1  UNL1        0.0119
     14 C          60.5620   86.8465    8.6428 C.ar    1  UNL1        0.0682
     15 CL         59.7744   86.2034    7.5401 Cl      1  UNL1       -0.0814
     16 C          60.4965   88.3315    8.8437 C.ar    1  UNL1        0.0679
     17 CL         59.6433   89.1735    7.9418 Cl      1  UNL1       -0.0814
     18 C          61.2841   88.9747    9.9464 C.ar    1  UNL1        0.0083
     19 C          63.1525   88.5001   16.8736 C.3     1  UNL1        0.0859
     20 N          63.9775   88.0442   15.7068 N.3     1  UNL1       -0.2971
     21 H          63.7521   87.0614   15.5529 H       1  UNL1        0.1233
@<TRIPOS>BOND
     1    19    20    1
     2     1    20    1
     3     1     2    1
     4     2     3    1
     5     3     4   ar
     6     4     5   ar
     7     5     6   ar
     8     6     7   ar
     9     7     8   ar
    10     8     9    1
    11     9    11    1
    12    11    12   ar
    13    12    13   ar
    14    13    14   ar
    15    14    15    1
    16    14    16   ar
    17    16    17    1
    18    16    18   ar
    19     9    10    1
    20    10     1    1
    21     8     3   ar
    22    18    11   ar
    23    20    21    1
