@<TRIPOS>MOLECULE
*****
 40 44 0 0 0
SMALL
GASTEIGER

@<TRIPOS>ATOM
      1 C          62.4776   86.1469   10.9549 C.ar    1  UNL1        0.1389
      2 C          63.2062   86.7495   12.1194 C.ar    1  UNL1        0.0396
      3 C          63.2803   88.2403   12.2677 C.ar    1  UNL1        0.0343
      4 C          64.0089   88.8429   13.4322 C.ar    1  UNL1        0.0557
      5 C          64.0830   90.3337   13.5805 C.ar    1  UNL1        0.0856
      6 C          63.4285   91.2219   12.5642 C.ar    1  UNL1        0.1045
      7 N          62.6999   90.6193   11.3998 N.ar    1  UNL1       -0.2436
      8 C          62.6258   89.1285   11.2515 C.ar    1  UNL1        0.0827
      9 C          61.8972   88.5260   10.0870 C.ar    1  UNL1        0.0223
     10 C          61.8231   87.0351    9.9387 C.ar    1  UNL1        0.0394
     11 C          61.0945   86.4326    8.7742 C.ar    1  UNL1        0.0526
     12 C          61.6734   85.4833    7.7674 C.ar    1  UNL1        0.1007
     13 C          63.0827   84.9698    7.7484 C.3     1  UNL1        0.0557
     14 N          60.5958   85.1376    6.7830 N.ar    1  UNL1       -0.0817
     15 O          59.3507   85.8732    7.1814 O.2     1  UNL1       -0.3581
     16 C          59.6589   86.6736    8.4120 C.ar    1  UNL1        0.1545
     17 C          58.7000   87.5594    9.1507 C.3     1  UNL1        0.0754
     18 C          64.8116   90.9363   14.7450 C.2     1  UNL1        0.2455
     19 N          66.3103   90.9978   14.7415 N.am    1  UNL1       -0.3252
     20 O          64.0414   91.4773   15.9130 O.2     1  UNL1       -0.2703
     21 H          66.8158   90.6427   13.9749 H       1  UNL1        0.1453
     22 H          66.7885   91.3933   15.5058 H       1  UNL1        0.1453
     23 C          63.6520   83.8301   10.9003 C.3     1  UNL1        0.2525
     24 O          62.4035   84.6561   10.8066 O.3     1  UNL1       -0.4714
     25 N          64.6634   87.9546   14.4484 N.pl3   1  UNL1       -0.3123
     26 H          65.6130   87.7133   14.3524 H       1  UNL1        0.1522
     27 C          63.8710   87.4340   15.6107 C.ar    1  UNL1        0.0514
     28 C          63.1736   88.3908   16.5317 C.ar    1  UNL1        0.0147
     29 C          62.3812   87.8702   17.6941 C.ar    1  UNL1        0.0013
     30 C          62.2862   86.3928   17.9355 C.ar    1  UNL1        0.0002
     31 C          62.9837   85.4360   17.0145 C.ar    1  UNL1        0.0045
     32 C          63.7761   85.9566   15.8521 C.ar    1  UNL1        0.0539
     33 C          64.4735   84.9998   14.9312 C.2     1  UNL1        0.2142
     34 O          65.8432   85.3224   14.4118 O.2     1  UNL1       -0.2849
     35 C          63.8012   83.7205   14.5297 C.ar    1  UNL1        0.1202
     36 C          62.3209   83.5615   14.7130 C.ar    1  UNL1        0.0224
     37 C          61.6486   82.2820   14.3114 C.ar    1  UNL1        0.0032
     38 C          62.4566   81.1617   13.7266 C.ar    1  UNL1        0.0207
     39 C          63.9368   81.3207   13.5433 C.ar    1  UNL1        0.0989
     40 N          64.6091   82.6001   13.9448 N.ar    1  UNL1       -0.2406
@<TRIPOS>BOND
     1    23    24    1
     2    24     1    1
     3     1     2   ar
     4     2     3   ar
     5     3     4   ar
     6     4    25    1
     7    25    27    1
     8    27    28   ar
     9    28    29   ar
    10    29    30   ar
    11    30    31   ar
    12    31    32   ar
    13    32    33    1
    14    33    34    2
    15    33    35    1
    16    35    36   ar
    17    36    37   ar
    18    37    38   ar
    19    38    39   ar
    20    39    40   ar
    21     4     5   ar
    22     5    18    1
    23    18    19   am
    24    18    20    2
    25     5     6   ar
    26     6     7   ar
    27     7     8   ar
    28     8     9   ar
    29     9    10   ar
    30    10    11    1
    31    11    12   ar
    32    12    13    1
    33    12    14   ar
    34    14    15   ar
    35    15    16   ar
    36    16    17    1
    37    10     1   ar
    38    16    11   ar
    39     8     3   ar
    40    32    27   ar
    41    40    35   ar
    42    25    26    1
    43    19    21    1
    44    19    22    1
@<TRIPOS>MOLECULE
*****
 40 44 0 0 0
SMALL
GASTEIGER

@<TRIPOS>ATOM
      1 C          64.1102   89.1358   13.6031 C.ar    1  UNL1        0.1389
      2 C          63.1925   88.3368   12.7260 C.ar    1  UNL1        0.0396
      3 C          62.3914   89.0210   11.6582 C.ar    1  UNL1        0.0343
      4 C          61.4737   88.2220   10.7811 C.ar    1  UNL1        0.0557
      5 C          60.6726   88.9062    9.7133 C.ar    1  UNL1        0.0856
      6 C          60.7892   90.3895    9.5228 C.ar    1  UNL1        0.1045
      7 N          61.7069   91.1885   10.3999 N.ar    1  UNL1       -0.2436
      8 C          62.5080   90.5043   11.4677 C.ar    1  UNL1        0.0827
      9 C          63.4257   91.3032   12.3448 C.ar    1  UNL1        0.0223
     10 C          64.2268   90.6190   13.4125 C.ar    1  UNL1        0.0394
     11 C          65.1445   91.4181   14.2897 C.ar    1  UNL1        0.0526
     12 C          66.4191   92.0816   13.8595 C.ar    1  UNL1        0.1007
     13 C          66.9999   92.0626   12.4766 C.3     1  UNL1        0.0557
     14 N          67.0110   92.7675   15.0550 N.ar    1  UNL1       -0.0817
     15 O          66.1022   92.5279   16.2241 O.2     1  UNL1       -0.3581
     16 C          64.9487   91.6939   15.7511 C.ar    1  UNL1        0.1545
     17 C          63.8008   91.2191   16.5918 C.3     1  UNL1        0.0754
     18 C          59.7549   88.1072    8.8362 C.2     1  UNL1        0.2455
     19 N          59.5369   88.5158    7.4095 N.am    1  UNL1       -0.3252
     20 O          59.0551   86.8996    9.3858 O.2     1  UNL1       -0.2703
     21 H          59.9962   89.3084    7.0488 H       1  UNL1        0.1453
     22 H          58.9346   87.9914    6.8338 H       1  UNL1        0.1453
     23 C          64.6163   87.0259   15.0322 C.3     1  UNL1        0.2525
     24 O          64.9113   88.4515   14.6708 O.3     1  UNL1       -0.4714
     25 N          61.3571   86.7387   10.9717 N.pl3   1  UNL1       -0.3123
     26 H          60.7332   86.3760   11.6413 H       1  UNL1        0.1522
     27 C          62.1911   85.8081   10.1419 C.ar    1  UNL1        0.0514
     28 C          62.4162   86.0977    8.6875 C.ar    1  UNL1        0.0147
     29 C          63.2501   85.1671    7.8578 C.ar    1  UNL1        0.0013
     30 C          63.8589   83.9468    8.4825 C.ar    1  UNL1        0.0002
     31 C          63.6338   83.6571    9.9370 C.ar    1  UNL1        0.0045
     32 C          62.7999   84.5878   10.7667 C.ar    1  UNL1        0.0539
     33 C          62.5747   84.2981   12.2211 C.2     1  UNL1        0.2142
     34 O          62.4668   85.4272   13.2027 O.2     1  UNL1       -0.2849
     35 C          62.4575   82.8795   12.6939 C.ar    1  UNL1        0.1202
     36 C          62.8647   81.7522   11.7919 C.ar    1  UNL1        0.0224
     37 C          62.7474   80.3335   12.2648 C.ar    1  UNL1        0.0032
     38 C          62.2231   80.0420   13.6396 C.ar    1  UNL1        0.0207
     39 C          61.8159   81.1693   14.5415 C.ar    1  UNL1        0.0989
     40 N          61.9331   82.5880   14.0688 N.ar    1  UNL1       -0.2406
@<TRIPOS>BOND
     1    23    24    1
     2    24     1    1
     3     1     2   ar
     4     2     3   ar
     5     3     4   ar
     6     4    25    1
     7    25    27    1
     8    27    28   ar
     9    28    29   ar
    10    29    30   ar
    11    30    31   ar
    12    31    32   ar
    13    32    33    1
    14    33    34    2
    15    33    35    1
    16    35    36   ar
    17    36    37   ar
    18    37    38   ar
    19    38    39   ar
    20    39    40   ar
    21     4     5   ar
    22     5    18    1
    23    18    19   am
    24    18    20    2
    25     5     6   ar
    26     6     7   ar
    27     7     8   ar
    28     8     9   ar
    29     9    10   ar
    30    10    11    1
    31    11    12   ar
    32    12    13    1
    33    12    14   ar
    34    14    15   ar
    35    15    16   ar
    36    16    17    1
    37    10     1   ar
    38    16    11   ar
    39     8     3   ar
    40    32    27   ar
    41    40    35   ar
    42    25    26    1
    43    19    21    1
    44    19    22    1
@<TRIPOS>MOLECULE
*****
 40 44 0 0 0
SMALL
GASTEIGER

@<TRIPOS>ATOM
      1 C          63.8155   85.1799   13.1935 C.ar    1  UNL1        0.1389
      2 C          63.7803   86.6528   12.9120 C.ar    1  UNL1        0.0396
      3 C          62.7624   87.2107   11.9619 C.ar    1  UNL1        0.0343
      4 C          62.7273   88.6837   11.6805 C.ar    1  UNL1        0.0557
      5 C          61.7095   89.2417   10.7304 C.ar    1  UNL1        0.0856
      6 C          60.7267   88.3266   10.0617 C.ar    1  UNL1        0.1045
      7 N          60.7619   86.8537   10.3432 N.ar    1  UNL1       -0.2436
      8 C          61.7797   86.2958   11.2933 C.ar    1  UNL1        0.0827
      9 C          61.8149   84.8229   11.5748 C.ar    1  UNL1        0.0223
     10 C          62.8328   84.2649   12.5249 C.ar    1  UNL1        0.0394
     11 C          62.8679   82.7920   12.8064 C.ar    1  UNL1        0.0526
     12 C          62.4993   82.1329   14.1024 C.ar    1  UNL1        0.1007
     13 C          62.0308   82.8311   15.3446 C.3     1  UNL1        0.0557
     14 N          62.6814   80.6531   13.9382 N.ar    1  UNL1       -0.0817
     15 O          63.1626   80.3975   12.5406 O.2     1  UNL1       -0.3581
     16 C          63.2778   81.7194   11.8412 C.ar    1  UNL1        0.1545
     17 C          63.7246   81.9315   10.4250 C.3     1  UNL1        0.0754
     18 C          61.6743   90.7146   10.4489 C.2     1  UNL1        0.2455
     19 N          62.8436   91.3794    9.7849 N.am    1  UNL1       -0.3252
     20 O          60.4698   91.5227   10.8313 O.2     1  UNL1       -0.2703
     21 H          63.6341   90.8490    9.5339 H       1  UNL1        0.1453
     22 H          62.8205   92.3461    9.6002 H       1  UNL1        0.1453
     23 C          64.8554   85.0787   15.5722 C.3     1  UNL1        0.2525
     24 O          64.8333   84.6220   14.1436 O.3     1  UNL1       -0.4714
     25 N          63.7100   89.5987   12.3491 N.pl3   1  UNL1       -0.3123
     26 H          64.4271   90.0203   11.8225 H       1  UNL1        0.1522
     27 C          63.6002   89.8713   13.8200 C.ar    1  UNL1        0.0514
     28 C          62.6715   89.0530   14.6671 C.ar    1  UNL1        0.0147
     29 C          62.5617   89.3256   16.1381 C.ar    1  UNL1        0.0013
     30 C          63.3806   90.4166   16.7618 C.ar    1  UNL1        0.0002
     31 C          64.3094   91.2350   15.9147 C.ar    1  UNL1        0.0045
     32 C          64.4192   90.9624   14.4437 C.ar    1  UNL1        0.0539
     33 C          65.3479   91.7807   13.5966 C.2     1  UNL1        0.2142
     34 O          64.9544   92.1544   12.1982 O.2     1  UNL1       -0.2849
     35 C          66.6702   92.2254   14.1478 C.ar    1  UNL1        0.1202
     36 C          66.7201   93.0796   15.3798 C.ar    1  UNL1        0.0224
     37 C          68.0425   93.5242   15.9310 C.ar    1  UNL1        0.0032
     38 C          69.3148   93.1147   15.2502 C.ar    1  UNL1        0.0207
     39 C          69.2648   92.2604   14.0182 C.ar    1  UNL1        0.0989
     40 N          67.9425   91.8158   13.4670 N.ar    1  UNL1       -0.2406
@<TRIPOS>BOND
     1    23    24    1
     2    24     1    1
     3     1     2   ar
     4     2     3   ar
     5     3     4   ar
     6     4    25    1
     7    25    27    1
     8    27    28   ar
     9    28    29   ar
    10    29    30   ar
    11    30    31   ar
    12    31    32   ar
    13    32    33    1
    14    33    34    2
    15    33    35    1
    16    35    36   ar
    17    36    37   ar
    18    37    38   ar
    19    38    39   ar
    20    39    40   ar
    21     4     5   ar
    22     5    18    1
    23    18    19   am
    24    18    20    2
    25     5     6   ar
    26     6     7   ar
    27     7     8   ar
    28     8     9   ar
    29     9    10   ar
    30    10    11    1
    31    11    12   ar
    32    12    13    1
    33    12    14   ar
    34    14    15   ar
    35    15    16   ar
    36    16    17    1
    37    10     1   ar
    38    16    11   ar
    39     8     3   ar
    40    32    27   ar
    41    40    35   ar
    42    25    26    1
    43    19    21    1
    44    19    22    1
@<TRIPOS>MOLECULE
*****
 40 44 0 0 0
SMALL
GASTEIGER

@<TRIPOS>ATOM
      1 C          63.7044   83.9629   13.1582 C.ar    1  UNL1        0.1389
      2 C          63.8245   85.4580   13.1696 C.ar    1  UNL1        0.0396
      3 C          63.0133   86.2828   12.2149 C.ar    1  UNL1        0.0343
      4 C          63.1334   87.7780   12.2262 C.ar    1  UNL1        0.0557
      5 C          62.3221   88.6029   11.2715 C.ar    1  UNL1        0.0856
      6 C          61.3908   87.9325   10.3054 C.ar    1  UNL1        0.1045
      7 N          61.2707   86.4374   10.2940 N.ar    1  UNL1       -0.2436
      8 C          62.0819   85.6126   11.2488 C.ar    1  UNL1        0.0827
      9 C          61.9619   84.1174   11.2374 C.ar    1  UNL1        0.0223
     10 C          62.7731   83.2926   12.1921 C.ar    1  UNL1        0.0394
     11 C          62.6530   81.7974   12.1808 C.ar    1  UNL1        0.0526
     12 C          63.1431   80.8817   11.0985 C.ar    1  UNL1        0.1007
     13 C          63.8393   81.3004    9.8375 C.3     1  UNL1        0.0557
     14 N          62.8147   79.4739   11.4985 N.ar    1  UNL1       -0.0817
     15 O          62.1216   79.5194   12.8281 O.2     1  UNL1       -0.3581
     16 C          62.0217   80.9554   13.2497 C.ar    1  UNL1        0.1545
     17 C          61.3997   81.4608   14.5177 C.3     1  UNL1        0.0754
     18 C          62.4422   90.0980   11.2829 C.2     1  UNL1        0.2455
     19 N          61.2448   90.9442   11.5994 N.am    1  UNL1       -0.3252
     20 O          63.7597   90.7470   10.9776 O.2     1  UNL1       -0.2703
     21 H          60.3801   90.5183   11.7998 H       1  UNL1        0.1453
     22 H          61.3236   91.9255   11.6069 H       1  UNL1        0.1453
     23 C          64.4118   83.3810   15.5895 C.3     1  UNL1        0.2525
     24 O          64.5156   83.1380   14.1130 O.3     1  UNL1       -0.4714
     25 N          64.0647   88.4483   13.1923 N.pl3   1  UNL1       -0.3123
     26 H          64.8959   88.8637   12.8671 H       1  UNL1        0.1522
     27 C          63.7296   88.4856   14.6539 C.ar    1  UNL1        0.0514
     28 C          63.3644   87.2204   15.3722 C.ar    1  UNL1        0.0147
     29 C          63.0293   87.2577   16.8338 C.ar    1  UNL1        0.0013
     30 C          63.0594   88.5602   17.5772 C.ar    1  UNL1        0.0002
     31 C          63.4246   89.8255   16.8589 C.ar    1  UNL1        0.0045
     32 C          63.7597   89.7882   15.3973 C.ar    1  UNL1        0.0539
     33 C          64.1249   91.0533   14.6790 C.2     1  UNL1        0.2142
     34 O          63.1059   91.7552   13.8310 O.2     1  UNL1       -0.2849
     35 C          65.5090   91.6166   14.8088 C.ar    1  UNL1        0.1202
     36 C          65.9049   92.3542   16.0534 C.ar    1  UNL1        0.0224
     37 C          67.2891   92.9175   16.1831 C.ar    1  UNL1        0.0032
     38 C          68.2773   92.7432   15.0682 C.ar    1  UNL1        0.0207
     39 C          67.8814   92.0056   13.8236 C.ar    1  UNL1        0.0989
     40 N          66.4973   91.4423   13.6938 N.ar    1  UNL1       -0.2406
@<TRIPOS>BOND
     1    23    24    1
     2    24     1    1
     3     1     2   ar
     4     2     3   ar
     5     3     4   ar
     6     4    25    1
     7    25    27    1
     8    27    28   ar
     9    28    29   ar
    10    29    30   ar
    11    30    31   ar
    12    31    32   ar
    13    32    33    1
    14    33    34    2
    15    33    35    1
    16    35    36   ar
    17    36    37   ar
    18    37    38   ar
    19    38    39   ar
    20    39    40   ar
    21     4     5   ar
    22     5    18    1
    23    18    19   am
    24    18    20    2
    25     5     6   ar
    26     6     7   ar
    27     7     8   ar
    28     8     9   ar
    29     9    10   ar
    30    10    11    1
    31    11    12   ar
    32    12    13    1
    33    12    14   ar
    34    14    15   ar
    35    15    16   ar
    36    16    17    1
    37    10     1   ar
    38    16    11   ar
    39     8     3   ar
    40    32    27   ar
    41    40    35   ar
    42    25    26    1
    43    19    21    1
    44    19    22    1
@<TRIPOS>MOLECULE
*****
 40 44 0 0 0
SMALL
GASTEIGER

@<TRIPOS>ATOM
      1 C          63.4465   85.6849   13.1928 C.ar    1  UNL1        0.1389
      2 C          62.8998   87.0363   12.8397 C.ar    1  UNL1        0.0396
      3 C          61.9269   87.1792   11.7070 C.ar    1  UNL1        0.0343
      4 C          61.3803   88.5308   11.3539 C.ar    1  UNL1        0.0557
      5 C          60.4074   88.6737   10.2212 C.ar    1  UNL1        0.0856
      6 C          59.9812   87.4651    9.4415 C.ar    1  UNL1        0.1045
      7 N          60.5279   86.1137    9.7946 N.ar    1  UNL1       -0.2436
      8 C          61.5007   85.9708   10.9274 C.ar    1  UNL1        0.0827
      9 C          62.0474   84.6193   11.2805 C.ar    1  UNL1        0.0223
     10 C          63.0203   84.4764   12.4132 C.ar    1  UNL1        0.0394
     11 C          63.5670   83.1249   12.7663 C.ar    1  UNL1        0.0526
     12 C          63.3942   82.4193   14.0786 C.ar    1  UNL1        0.1007
     13 C          62.6445   82.9412   15.2683 C.3     1  UNL1        0.0557
     14 N          64.1029   81.1000   13.9924 N.ar    1  UNL1       -0.0817
     15 O          64.7136   80.9903   12.6267 O.2     1  UNL1       -0.3581
     16 C          64.3824   82.2417   11.8689 C.ar    1  UNL1        0.1545
     17 C          64.7942   82.5550   10.4610 C.3     1  UNL1        0.0754
     18 C          59.8607   90.0252    9.8681 C.2     1  UNL1        0.2455
     19 N          59.7097   90.4205    8.4290 N.am    1  UNL1       -0.3252
     20 O          59.4651   90.9813   10.9540 O.2     1  UNL1       -0.2703
     21 H          59.9693   89.7930    7.7162 H       1  UNL1        0.1453
     22 H          59.3509   91.3075    8.1973 H       1  UNL1        0.1453
     23 C          64.2244   86.3317   15.5858 C.3     1  UNL1        0.2525
     24 O          64.4194   85.5419   14.3256 O.3     1  UNL1       -0.4714
     25 N          61.8065   89.7393   12.1335 N.pl3   1  UNL1       -0.3123
     26 H          61.4068   89.9229   13.0143 H       1  UNL1        0.1522
     27 C          62.8415   90.6679   11.5712 C.ar    1  UNL1        0.0514
     28 C          62.8112   91.0322   10.1164 C.ar    1  UNL1        0.0147
     29 C          63.8463   91.9609    9.5541 C.ar    1  UNL1        0.0013
     30 C          64.9116   92.5253   10.4465 C.ar    1  UNL1        0.0002
     31 C          64.9419   92.1610   11.9013 C.ar    1  UNL1        0.0045
     32 C          63.9069   91.2324   12.4637 C.ar    1  UNL1        0.0539
     33 C          63.9372   90.8681   13.9184 C.2     1  UNL1        0.2142
     34 O          62.8623   89.9954   14.4956 O.2     1  UNL1       -0.2849
     35 C          65.0423   91.3766   14.7960 C.ar    1  UNL1        0.1202
     36 C          66.4729   91.1207   14.4247 C.ar    1  UNL1        0.0224
     37 C          67.5780   91.6292   15.3023 C.ar    1  UNL1        0.0032
     38 C          67.2525   92.3935   16.5512 C.ar    1  UNL1        0.0207
     39 C          65.8219   92.6494   16.9225 C.ar    1  UNL1        0.0989
     40 N          64.7168   92.1410   16.0450 N.ar    1  UNL1       -0.2406
@<TRIPOS>BOND
     1    23    24    1
     2    24     1    1
     3     1     2   ar
     4     2     3   ar
     5     3     4   ar
     6     4    25    1
     7    25    27    1
     8    27    28   ar
     9    28    29   ar
    10    29    30   ar
    11    30    31   ar
    12    31    32   ar
    13    32    33    1
    14    33    34    2
    15    33    35    1
    16    35    36   ar
    17    36    37   ar
    18    37    38   ar
    19    38    39   ar
    20    39    40   ar
    21     4     5   ar
    22     5    18    1
    23    18    19   am
    24    18    20    2
    25     5     6   ar
    26     6     7   ar
    27     7     8   ar
    28     8     9   ar
    29     9    10   ar
    30    10    11    1
    31    11    12   ar
    32    12    13    1
    33    12    14   ar
    34    14    15   ar
    35    15    16   ar
    36    16    17    1
    37    10     1   ar
    38    16    11   ar
    39     8     3   ar
    40    32    27   ar
    41    40    35   ar
    42    25    26    1
    43    19    21    1
    44    19    22    1
@<TRIPOS>MOLECULE
*****
 40 44 0 0 0
SMALL
GASTEIGER

@<TRIPOS>ATOM
      1 C          64.0438   85.1560   13.4691 C.ar    1  UNL1        0.1389
      2 C          64.2196   86.6319   13.2669 C.ar    1  UNL1        0.0396
      3 C          63.2970   87.3785   12.3497 C.ar    1  UNL1        0.0343
      4 C          63.4729   88.8544   12.1476 C.ar    1  UNL1        0.0557
      5 C          62.5503   89.6010   11.2303 C.ar    1  UNL1        0.0856
      6 C          61.4517   88.8716   10.5151 C.ar    1  UNL1        0.1045
      7 N          61.2759   87.3958   10.7173 N.ar    1  UNL1       -0.2436
      8 C          62.1985   86.6492   11.6345 C.ar    1  UNL1        0.0827
      9 C          62.0227   85.1733   11.8367 C.ar    1  UNL1        0.0223
     10 C          62.9453   84.4268   12.7539 C.ar    1  UNL1        0.0394
     11 C          62.7694   82.9508   12.9560 C.ar    1  UNL1        0.0526
     12 C          63.0225   81.8844   11.9321 C.ar    1  UNL1        0.1007
     13 C          63.4960   82.1064   10.5262 C.3     1  UNL1        0.0557
     14 N          62.7191   80.5567   12.5608 N.ar    1  UNL1       -0.0817
     15 O          62.2784   80.8027   13.9734 O.2     1  UNL1       -0.3581
     16 C          62.3095   82.2823   14.2176 C.ar    1  UNL1        0.1545
     17 C          61.9447   82.9723   15.4986 C.3     1  UNL1        0.0754
     18 C          62.7261   91.0768   11.0282 C.2     1  UNL1        0.2455
     19 N          62.7924   91.6411    9.6399 N.am    1  UNL1       -0.3252
     20 O          62.8357   91.9885   12.2143 O.2     1  UNL1       -0.2703
     21 H          62.7205   91.0427    8.8614 H       1  UNL1        0.1453
     22 H          62.9078   92.6097    9.5073 H       1  UNL1        0.1453
     23 C          66.2494   85.0423   14.8374 C.3     1  UNL1        0.2525
     24 O          64.9664   84.4095   14.3863 O.3     1  UNL1       -0.4714
     25 N          64.5714   89.5837   12.8627 N.pl3   1  UNL1       -0.3123
     26 H          65.4614   89.6611   12.4491 H       1  UNL1        0.1522
     27 C          64.3138   90.1950   14.2080 C.ar    1  UNL1        0.0514
     28 C          63.1246   89.7622   15.0132 C.ar    1  UNL1        0.0147
     29 C          62.8670   90.3735   16.3586 C.ar    1  UNL1        0.0013
     30 C          63.7987   91.4176   16.8987 C.ar    1  UNL1        0.0002
     31 C          64.9880   91.8505   16.0935 C.ar    1  UNL1        0.0045
     32 C          65.2455   91.2392   14.7481 C.ar    1  UNL1        0.0539
     33 C          66.4347   91.6720   13.9429 C.2     1  UNL1        0.2142
     34 O          67.7951   91.1262   14.2616 O.2     1  UNL1       -0.2849
     35 C          66.2636   92.6505   12.8191 C.ar    1  UNL1        0.1202
     36 C          66.3462   94.1238   13.0883 C.ar    1  UNL1        0.0224
     37 C          66.1750   95.1024   11.9643 C.ar    1  UNL1        0.0032
     38 C          65.9212   94.6076   10.5712 C.ar    1  UNL1        0.0207
     39 C          65.8386   93.1343   10.3020 C.ar    1  UNL1        0.0989
     40 N          66.0098   92.1557   11.4259 N.ar    1  UNL1       -0.2406
@<TRIPOS>BOND
     1    23    24    1
     2    24     1    1
     3     1     2   ar
     4     2     3   ar
     5     3     4   ar
     6     4    25    1
     7    25    27    1
     8    27    28   ar
     9    28    29   ar
    10    29    30   ar
    11    30    31   ar
    12    31    32   ar
    13    32    33    1
    14    33    34    2
    15    33    35    1
    16    35    36   ar
    17    36    37   ar
    18    37    38   ar
    19    38    39   ar
    20    39    40   ar
    21     4     5   ar
    22     5    18    1
    23    18    19   am
    24    18    20    2
    25     5     6   ar
    26     6     7   ar
    27     7     8   ar
    28     8     9   ar
    29     9    10   ar
    30    10    11    1
    31    11    12   ar
    32    12    13    1
    33    12    14   ar
    34    14    15   ar
    35    15    16   ar
    36    16    17    1
    37    10     1   ar
    38    16    11   ar
    39     8     3   ar
    40    32    27   ar
    41    40    35   ar
    42    25    26    1
    43    19    21    1
    44    19    22    1
