@<TRIPOS>MOLECULE
*****
 30 33 0 0 0
SMALL
GASTEIGER

@<TRIPOS>ATOM
      1 C          61.7076   89.5238   10.2416 C.ar    1  UNL1        0.0494
      2 C          60.4902   89.6218    9.3708 C.ar    1  UNL1        0.0169
      3 C          59.9281   88.3896    8.7261 C.ar    1  UNL1        0.0307
      4 C          60.5834   87.0594    8.9522 C.ar    1  UNL1        0.1402
      5 F          60.0213   85.8272    8.3075 F       1  UNL1       -0.2044
      6 C          61.8007   86.9614    9.8230 C.ar    1  UNL1        0.0528
      7 C          62.3629   88.1936   10.4678 C.ar    1  UNL1        0.0167
      8 C          62.4560   85.6312   10.0492 C.3     1  UNL1        0.2223
      9 C          62.7557   85.8248    8.5921 C.3     1  UNL1        0.0607
     10 C          61.9289   85.8995   11.4276 C.3     1  UNL1        0.1959
     11 O          62.1611   84.9048   12.5262 O.3     1  UNL1       -0.3374
     12 C          62.9204   83.6419   12.2462 C.3     1  UNL1        0.2591
     13 C          63.4476   83.3736   10.8678 C.2     1  UNL1        0.3194
     14 N          64.2069   82.1107   10.5879 N.pl3   1  UNL1       -0.2480
     15 N          63.2154   84.3683    9.7692 N.2     1  UNL1       -0.0693
     16 H          64.3593   81.4578   11.3089 H       1  UNL1        0.2882
     17 H          64.5529   81.9346    9.6832 H       1  UNL1        0.2882
     18 N          62.2697   90.7561   10.8864 N.pl3   1  UNL1       -0.2965
     19 H          62.1992   91.6259   10.4307 H       1  UNL1        0.1537
     20 C          63.2946   89.5032   15.9123 C.3     1  UNL1        0.1537
     21 N          63.4104   90.0871   14.5355 N.ar    1  UNL1       -0.2476
     22 N          62.4278   89.9082   13.4164 N.ar    1  UNL1       -0.1541
     23 C          62.9394   90.6630   12.2254 C.ar    1  UNL1        0.1533
     24 C          64.2381   91.3084   12.6084 C.ar    1  UNL1        0.0507
     25 C          65.1932   92.1742   11.8415 C.ar    1  UNL1        0.0052
     26 C          66.4395   92.6841   12.5024 C.ar    1  UNL1        0.0116
     27 C          66.7306   92.3282   13.9302 C.ar    1  UNL1        0.0592
     28 CL         67.9769   92.8381   14.5911 Cl      1  UNL1       -0.0822
     29 C          65.7755   91.4624   14.6971 C.ar    1  UNL1        0.0302
     30 C          64.5293   90.9525   14.0362 C.ar    1  UNL1        0.0815
@<TRIPOS>BOND
     1    20    21    1
     2    21    22   ar
     3    22    23   ar
     4    23    18    1
     5    18     1    1
     6     1     2   ar
     7     2     3   ar
     8     3     4   ar
     9     4     5    1
    10     4     6   ar
    11     6     8    1
    12     8     9    1
    13     8    10    1
    14    10    11    1
    15    11    12    1
    16    12    13    1
    17    13    14    1
    18    13    15    2
    19     6     7   ar
    20    23    24   ar
    21    24    25   ar
    22    25    26   ar
    23    26    27   ar
    24    27    28    1
    25    27    29   ar
    26    29    30   ar
    27    30    21   ar
    28     7     1   ar
    29    30    24   ar
    30    15     8    1
    31    18    19    1
    32    14    16    1
    33    14    17    1
@<TRIPOS>MOLECULE
*****
 30 33 0 0 0
SMALL
GASTEIGER

@<TRIPOS>ATOM
      1 C          64.0284   91.0567   12.7787 C.ar    1  UNL1        0.0494
      2 C          64.8193   90.6651   13.9916 C.ar    1  UNL1        0.0169
      3 C          66.1758   91.2605   14.2268 C.ar    1  UNL1        0.0307
      4 C          66.7413   92.2476   13.2491 C.ar    1  UNL1        0.1402
      5 F          68.0978   92.8431   13.4842 F       1  UNL1       -0.2044
      6 C          65.9504   92.6391   12.0362 C.ar    1  UNL1        0.0528
      7 C          64.5939   92.0437   11.8010 C.ar    1  UNL1        0.0167
      8 C          66.5159   93.6262   11.0585 C.3     1  UNL1        0.2223
      9 C          66.9313   92.3427   10.4026 C.3     1  UNL1        0.0607
     10 C          65.9041   94.5669   12.0539 C.3     1  UNL1        0.1959
     11 O          66.0022   96.0489   11.8437 O.3     1  UNL1       -0.3374
     12 C          66.7119   96.5902   10.6382 C.3     1  UNL1        0.2591
     13 C          67.3237   95.6494    9.6428 C.2     1  UNL1        0.3194
     14 N          68.0335   96.1907    8.4373 N.pl3   1  UNL1       -0.2480
     15 N          67.2257   94.1674    9.8530 N.2     1  UNL1       -0.0693
     16 H          68.0978   97.1633    8.2994 H       1  UNL1        0.2882
     17 H          68.4350   95.5732    7.7840 H       1  UNL1        0.2882
     18 N          62.6718   90.4611   12.5435 N.pl3   1  UNL1       -0.2965
     19 H          61.8635   91.0016   12.6976 H       1  UNL1        0.1537
     20 C          63.2234   85.2219   12.1882 C.3     1  UNL1        0.1537
     21 N          62.8004   86.6339   11.9104 N.ar    1  UNL1       -0.2476
     22 N          63.1948   87.8446   12.7032 N.ar    1  UNL1       -0.1541
     23 C          62.5469   89.0421   12.0737 C.ar    1  UNL1        0.1533
     24 C          61.7520   88.5714   10.8919 C.ar    1  UNL1        0.0507
     25 C          60.9058   89.3058    9.8946 C.ar    1  UNL1        0.0052
     26 C          60.2163   88.5519    8.7965 C.ar    1  UNL1        0.0116
     27 C          60.3730   87.0635    8.6955 C.ar    1  UNL1        0.0592
     28 CL         59.6834   86.3095    7.5972 Cl      1  UNL1       -0.0822
     29 C          61.2192   86.3291    9.6928 C.ar    1  UNL1        0.0302
     30 C          61.9087   87.0831   10.7909 C.ar    1  UNL1        0.0815
@<TRIPOS>BOND
     1    20    21    1
     2    21    22   ar
     3    22    23   ar
     4    23    18    1
     5    18     1    1
     6     1     2   ar
     7     2     3   ar
     8     3     4   ar
     9     4     5    1
    10     4     6   ar
    11     6     8    1
    12     8     9    1
    13     8    10    1
    14    10    11    1
    15    11    12    1
    16    12    13    1
    17    13    14    1
    18    13    15    2
    19     6     7   ar
    20    23    24   ar
    21    24    25   ar
    22    25    26   ar
    23    26    27   ar
    24    27    28    1
    25    27    29   ar
    26    29    30   ar
    27    30    21   ar
    28     7     1   ar
    29    30    24   ar
    30    15     8    1
    31    18    19    1
    32    14    16    1
    33    14    17    1
@<TRIPOS>MOLECULE
*****
 30 33 0 0 0
SMALL
GASTEIGER

@<TRIPOS>ATOM
      1 C          63.9156   87.3333   15.3842 C.ar    1  UNL1        0.0494
      2 C          63.3102   87.7710   16.6849 C.ar    1  UNL1        0.0169
      3 C          63.1424   89.2321   16.9801 C.ar    1  UNL1        0.0307
      4 C          63.5800   90.2554   15.9745 C.ar    1  UNL1        0.1402
      5 F          63.4123   91.7165   16.2696 F       1  UNL1       -0.2044
      6 C          64.1855   89.8177   14.6738 C.ar    1  UNL1        0.0528
      7 C          64.3533   88.3567   14.3786 C.ar    1  UNL1        0.0167
      8 C          64.6231   90.8411   13.6682 C.3     1  UNL1        0.2223
      9 C          63.3008   90.4467   13.0798 C.3     1  UNL1        0.0607
     10 C          65.7934   90.8801   14.6057 C.3     1  UNL1        0.1959
     11 O          66.9421   91.8055   14.3332 O.3     1  UNL1       -0.3374
     12 C          66.9205   92.6918   13.1233 C.3     1  UNL1        0.2591
     13 C          65.7502   92.6528   12.1858 C.2     1  UNL1        0.3194
     14 N          65.7286   93.5392   10.9759 N.pl3   1  UNL1       -0.2480
     15 N          64.6015   91.7274   12.4583 N.2     1  UNL1       -0.0693
     16 H          66.4825   94.1465   10.7972 H       1  UNL1        0.2882
     17 H          64.9605   93.5136   10.3606 H       1  UNL1        0.2882
     18 N          64.0834   85.8722   15.0890 N.pl3   1  UNL1       -0.2965
     19 H          64.5576   85.2922   15.7278 H       1  UNL1        0.1537
     20 C          61.9295   85.4440   10.2871 C.3     1  UNL1        0.1537
     21 N          62.5386   85.0979   11.6135 N.ar    1  UNL1       -0.2476
     22 N          62.9819   86.0748   12.6619 N.ar    1  UNL1       -0.1541
     23 C          63.5286   85.2947   13.8206 C.ar    1  UNL1        0.1533
     24 C          63.4231   83.8358   13.4884 C.ar    1  UNL1        0.0507
     25 C          63.8052   82.6024   14.2517 C.ar    1  UNL1        0.0052
     26 C          63.5754   81.2473   13.6509 C.ar    1  UNL1        0.0116
     27 C          62.9635   81.1257   12.2868 C.ar    1  UNL1        0.0592
     28 CL         62.7336   79.7706   11.6860 Cl      1  UNL1       -0.0822
     29 C          62.5814   82.3591   11.5234 C.ar    1  UNL1        0.0302
     30 C          62.8112   83.7141   12.1242 C.ar    1  UNL1        0.0815
@<TRIPOS>BOND
     1    20    21    1
     2    21    22   ar
     3    22    23   ar
     4    23    18    1
     5    18     1    1
     6     1     2   ar
     7     2     3   ar
     8     3     4   ar
     9     4     5    1
    10     4     6   ar
    11     6     8    1
    12     8     9    1
    13     8    10    1
    14    10    11    1
    15    11    12    1
    16    12    13    1
    17    13    14    1
    18    13    15    2
    19     6     7   ar
    20    23    24   ar
    21    24    25   ar
    22    25    26   ar
    23    26    27   ar
    24    27    28    1
    25    27    29   ar
    26    29    30   ar
    27    30    21   ar
    28     7     1   ar
    29    30    24   ar
    30    15     8    1
    31    18    19    1
    32    14    16    1
    33    14    17    1
@<TRIPOS>MOLECULE
*****
 30 33 0 0 0
SMALL
GASTEIGER

@<TRIPOS>ATOM
      1 C          64.4656   91.1002   13.3732 C.ar    1  UNL1        0.0494
      2 C          65.3586   90.7776   14.5345 C.ar    1  UNL1        0.0169
      3 C          66.7224   91.3951   14.6261 C.ar    1  UNL1        0.0307
      4 C          67.1933   92.3354   13.5565 C.ar    1  UNL1        0.1402
      5 F          68.5572   92.9530   13.6480 F       1  UNL1       -0.2044
      6 C          66.3003   92.6581   12.3952 C.ar    1  UNL1        0.0528
      7 C          64.9365   92.0405   12.3036 C.ar    1  UNL1        0.0167
      8 C          66.7712   93.5984   11.3256 C.3     1  UNL1        0.2223
      9 C          66.1491   94.5769   12.2772 C.3     1  UNL1        0.0607
     10 C          67.2298   92.2933   10.7454 C.3     1  UNL1        0.1959
     11 O          67.9432   92.2684    9.4261 O.3     1  UNL1       -0.3374
     12 C          68.1980   93.5485    8.6870 C.3     1  UNL1        0.2591
     13 C          67.7394   94.8536    9.2672 C.2     1  UNL1        0.3194
     14 N          67.9942   96.1337    8.5280 N.pl3   1  UNL1       -0.2480
     15 N          67.0260   94.8785   10.5864 N.2     1  UNL1       -0.0693
     16 H          68.4624   96.1173    7.6621 H       1  UNL1        0.2882
     17 H          67.6932   96.9903    8.9088 H       1  UNL1        0.2882
     18 N          63.1016   90.4826   13.2816 N.pl3   1  UNL1       -0.2965
     19 H          62.3170   90.9690   13.6238 H       1  UNL1        0.1537
     20 C          61.7518   86.6018    9.9654 C.3     1  UNL1        0.1537
     21 N          62.3127   87.3402   11.1444 N.ar    1  UNL1       -0.2476
     22 N          62.2496   88.8220   11.3681 N.ar    1  UNL1       -0.1541
     23 C          62.9332   89.1239   12.6687 C.ar    1  UNL1        0.1533
     24 C          63.4188   87.8287   13.2488 C.ar    1  UNL1        0.0507
     25 C          64.1606   87.5107   14.5131 C.ar    1  UNL1        0.0052
     26 C          64.5190   86.0902   14.8353 C.ar    1  UNL1        0.0116
     27 C          64.1355   84.9878   13.8933 C.ar    1  UNL1        0.0592
     28 CL         64.4939   83.5673   14.2156 Cl      1  UNL1       -0.0822
     29 C          63.3937   85.3058   12.6289 C.ar    1  UNL1        0.0302
     30 C          63.0353   86.7262   12.3067 C.ar    1  UNL1        0.0815
@<TRIPOS>BOND
     1    20    21    1
     2    21    22   ar
     3    22    23   ar
     4    23    18    1
     5    18     1    1
     6     1     2   ar
     7     2     3   ar
     8     3     4   ar
     9     4     5    1
    10     4     6   ar
    11     6     8    1
    12     8     9    1
    13     8    10    1
    14    10    11    1
    15    11    12    1
    16    12    13    1
    17    13    14    1
    18    13    15    2
    19     6     7   ar
    20    23    24   ar
    21    24    25   ar
    22    25    26   ar
    23    26    27   ar
    24    27    28    1
    25    27    29   ar
    26    29    30   ar
    27    30    21   ar
    28     7     1   ar
    29    30    24   ar
    30    15     8    1
    31    18    19    1
    32    14    16    1
    33    14    17    1
@<TRIPOS>MOLECULE
*****
 30 33 0 0 0
SMALL
GASTEIGER

@<TRIPOS>ATOM
      1 C          61.4587   89.5417   10.7560 C.ar    1  UNL1        0.0494
      2 C          60.4271   89.7371    9.6848 C.ar    1  UNL1        0.0169
      3 C          60.0721   88.6029    8.7696 C.ar    1  UNL1        0.0307
      4 C          60.7487   87.2733    8.9257 C.ar    1  UNL1        0.1402
      5 F          60.3938   86.1391    8.0106 F       1  UNL1       -0.2044
      6 C          61.7803   87.0780    9.9970 C.ar    1  UNL1        0.0528
      7 C          62.1353   88.2121   10.9122 C.ar    1  UNL1        0.0167
      8 C          62.4569   85.7484   10.1532 C.3     1  UNL1        0.2223
      9 C          62.7755   86.0355    8.7157 C.3     1  UNL1        0.0607
     10 C          61.9035   85.9229   11.5363 C.3     1  UNL1        0.1959
     11 O          62.1373   84.8677   12.5764 O.3     1  UNL1       -0.3374
     12 C          62.9245   83.6378   12.2333 C.3     1  UNL1        0.2591
     13 C          63.4780   83.4633   10.8501 C.2     1  UNL1        0.3194
     14 N          64.2652   82.2334   10.5070 N.pl3   1  UNL1       -0.2480
     15 N          63.2442   84.5185    9.8101 N.2     1  UNL1       -0.0693
     16 H          64.4187   81.5408   11.1897 H       1  UNL1        0.2882
     17 H          64.6285   82.1189    9.5992 H       1  UNL1        0.2882
     18 N          61.8136   90.6760   11.6712 N.pl3   1  UNL1       -0.2965
     19 H          61.1383   91.0409   12.2877 H       1  UNL1        0.1537
     20 C          66.2723   92.9628   10.0066 C.3     1  UNL1        0.1537
     21 N          65.2469   92.3054   10.8820 N.ar    1  UNL1       -0.2476
     22 N          63.8813   91.8552   10.4549 N.ar    1  UNL1       -0.1541
     23 C          63.1975   91.2542   11.6471 C.ar    1  UNL1        0.1533
     24 C          64.1405   91.3331   12.8110 C.ar    1  UNL1        0.0507
     25 C          64.0094   90.8972   14.2402 C.ar    1  UNL1        0.0052
     26 C          65.1450   91.1110   15.1966 C.ar    1  UNL1        0.0116
     27 C          66.4116   91.7607   14.7237 C.ar    1  UNL1        0.0592
     28 CL         67.5473   91.9745   15.6802 Cl      1  UNL1       -0.0822
     29 C          66.5427   92.1965   13.2945 C.ar    1  UNL1        0.0302
     30 C          65.4071   91.9827   12.3381 C.ar    1  UNL1        0.0815
@<TRIPOS>BOND
     1    20    21    1
     2    21    22   ar
     3    22    23   ar
     4    23    18    1
     5    18     1    1
     6     1     2   ar
     7     2     3   ar
     8     3     4   ar
     9     4     5    1
    10     4     6   ar
    11     6     8    1
    12     8     9    1
    13     8    10    1
    14    10    11    1
    15    11    12    1
    16    12    13    1
    17    13    14    1
    18    13    15    2
    19     6     7   ar
    20    23    24   ar
    21    24    25   ar
    22    25    26   ar
    23    26    27   ar
    24    27    28    1
    25    27    29   ar
    26    29    30   ar
    27    30    21   ar
    28     7     1   ar
    29    30    24   ar
    30    15     8    1
    31    18    19    1
    32    14    16    1
    33    14    17    1
@<TRIPOS>MOLECULE
*****
 30 33 0 0 0
SMALL
GASTEIGER

@<TRIPOS>ATOM
      1 C          64.3810   91.1507   13.3810 C.ar    1  UNL1        0.0494
      2 C          65.3465   90.6783   14.4273 C.ar    1  UNL1        0.0169
      3 C          66.7662   91.1621   14.4109 C.ar    1  UNL1        0.0307
      4 C          67.2203   92.1185   13.3483 C.ar    1  UNL1        0.1402
      5 F          68.6400   92.6024   13.3319 F       1  UNL1       -0.2044
      6 C          66.2548   92.5909   12.3021 C.ar    1  UNL1        0.0528
      7 C          64.8351   92.1070   12.3184 C.ar    1  UNL1        0.0167
      8 C          66.7090   93.5472   11.2394 C.3     1  UNL1        0.2223
      9 C          67.1723   92.2525   10.6400 C.3     1  UNL1        0.0607
     10 C          66.0880   94.5098   12.2079 C.3     1  UNL1        0.1959
     11 O          66.0820   95.9790   11.9055 O.3     1  UNL1       -0.3374
     12 C          66.6971   96.4856   10.6347 C.3     1  UNL1        0.2591
     13 C          67.3181   95.5231    9.6663 C.2     1  UNL1        0.3194
     14 N          67.9331   96.0298    8.3954 N.pl3   1  UNL1       -0.2480
     15 N          67.3240   94.0539    9.9686 N.2     1  UNL1       -0.0693
     16 H          67.9293   96.9941    8.1970 H       1  UNL1        0.2882
     17 H          68.3407   95.3980    7.7598 H       1  UNL1        0.2882
     18 N          62.9612   90.6668   13.3975 N.pl3   1  UNL1       -0.2965
     19 H          62.3620   90.9237   14.1352 H       1  UNL1        0.1537
     20 C          60.5970   89.0375    8.9661 C.3     1  UNL1        0.1537
     21 N          61.3677   89.0425   10.2530 N.ar    1  UNL1       -0.2476
     22 N          61.6601   90.2448   11.1009 N.ar    1  UNL1       -0.1541
     23 C          62.4543   89.7914   12.2898 C.ar    1  UNL1        0.1533
     24 C          62.6528   88.3089   12.1767 C.ar    1  UNL1        0.0507
     25 C          63.3583   87.3206   13.0573 C.ar    1  UNL1        0.0052
     26 C          63.3922   85.8695   12.6791 C.ar    1  UNL1        0.0116
     27 C          62.7206   85.4067   11.4202 C.ar    1  UNL1        0.0592
     28 CL         62.7545   83.9555   11.0420 Cl      1  UNL1       -0.0822
     29 C          62.0151   86.3949   10.5396 C.ar    1  UNL1        0.0302
     30 C          61.9812   87.8460   10.9179 C.ar    1  UNL1        0.0815
@<TRIPOS>BOND
     1    20    21    1
     2    21    22   ar
     3    22    23   ar
     4    23    18    1
     5    18     1    1
     6     1     2   ar
     7     2     3   ar
     8     3     4   ar
     9     4     5    1
    10     4     6   ar
    11     6     8    1
    12     8     9    1
    13     8    10    1
    14    10    11    1
    15    11    12    1
    16    12    13    1
    17    13    14    1
    18    13    15    2
    19     6     7   ar
    20    23    24   ar
    21    24    25   ar
    22    25    26   ar
    23    26    27   ar
    24    27    28    1
    25    27    29   ar
    26    29    30   ar
    27    30    21   ar
    28     7     1   ar
    29    30    24   ar
    30    15     8    1
    31    18    19    1
    32    14    16    1
    33    14    17    1
@<TRIPOS>MOLECULE
*****
 30 33 0 0 0
SMALL
GASTEIGER

@<TRIPOS>ATOM
      1 C          64.2770   87.3288   15.2218 C.ar    1  UNL1        0.0494
      2 C          63.4458   87.5544   16.4499 C.ar    1  UNL1        0.0169
      3 C          63.0388   88.9458   16.8350 C.ar    1  UNL1        0.0307
      4 C          63.4631   90.1117   15.9920 C.ar    1  UNL1        0.1402
      5 F          63.0562   91.5031   16.3770 F       1  UNL1       -0.2044
      6 C          64.2944   89.8861   14.7639 C.ar    1  UNL1        0.0528
      7 C          64.7013   88.4947   14.3788 C.ar    1  UNL1        0.0167
      8 C          64.7187   91.0520   13.9209 C.3     1  UNL1        0.2223
      9 C          63.4479   90.6725   13.2199 C.3     1  UNL1        0.0607
     10 C          65.8421   91.0266   14.9145 C.3     1  UNL1        0.1959
     11 O          66.9484   92.0353   14.8217 O.3     1  UNL1       -0.3374
     12 C          66.9314   93.0694   13.7353 C.3     1  UNL1        0.2591
     13 C          65.8079   93.0948   12.7416 C.2     1  UNL1        0.3194
     14 N          65.7909   94.1288   11.6552 N.pl3   1  UNL1       -0.2480
     15 N          64.7016   92.0861   12.8344 N.2     1  UNL1       -0.0693
     16 H          66.5170   94.7909   11.5943 H       1  UNL1        0.2882
     17 H          65.0536   94.1455   11.0030 H       1  UNL1        0.2882
     18 N          64.6840   85.9373   14.8367 N.pl3   1  UNL1       -0.2965
     19 H          65.4550   85.5107   15.2757 H       1  UNL1        0.1537
     20 C          62.4918   82.0405   12.0278 C.3     1  UNL1        0.1537
     21 N          62.9085   83.4048   12.4917 N.ar    1  UNL1       -0.2476
     22 N          63.7463   83.7079   13.6984 N.ar    1  UNL1       -0.1541
     23 C          63.9161   85.1959   13.7828 C.ar    1  UNL1        0.1533
     24 C          63.1833   85.8124   12.6283 C.ar    1  UNL1        0.0507
     25 C          63.0026   87.2386   12.2005 C.ar    1  UNL1        0.0052
     26 C          62.1992   87.5579   10.9747 C.ar    1  UNL1        0.0116
     27 C          61.5764   86.4509   10.1768 C.ar    1  UNL1        0.0592
     28 CL         60.7729   86.7703    8.9510 Cl      1  UNL1       -0.0822
     29 C          61.7571   85.0246   10.6046 C.ar    1  UNL1        0.0302
     30 C          62.5606   84.7054   11.8303 C.ar    1  UNL1        0.0815
@<TRIPOS>BOND
     1    20    21    1
     2    21    22   ar
     3    22    23   ar
     4    23    18    1
     5    18     1    1
     6     1     2   ar
     7     2     3   ar
     8     3     4   ar
     9     4     5    1
    10     4     6   ar
    11     6     8    1
    12     8     9    1
    13     8    10    1
    14    10    11    1
    15    11    12    1
    16    12    13    1
    17    13    14    1
    18    13    15    2
    19     6     7   ar
    20    23    24   ar
    21    24    25   ar
    22    25    26   ar
    23    26    27   ar
    24    27    28    1
    25    27    29   ar
    26    29    30   ar
    27    30    21   ar
    28     7     1   ar
    29    30    24   ar
    30    15     8    1
    31    18    19    1
    32    14    16    1
    33    14    17    1
@<TRIPOS>MOLECULE
*****
 30 33 0 0 0
SMALL
GASTEIGER

@<TRIPOS>ATOM
      1 C          63.7922   87.0158   13.5355 C.ar    1  UNL1        0.0494
      2 C          64.2088   87.1247   14.9724 C.ar    1  UNL1        0.0169
      3 C          64.3524   85.8870   15.8075 C.ar    1  UNL1        0.0307
      4 C          64.0793   84.5404   15.2057 C.ar    1  UNL1        0.1402
      5 F          64.2228   83.3027   16.0408 F       1  UNL1       -0.2044
      6 C          63.6627   84.4316   13.7688 C.ar    1  UNL1        0.0528
      7 C          63.5192   85.6693   12.9337 C.ar    1  UNL1        0.0167
      8 C          63.3896   83.0850   13.1670 C.3     1  UNL1        0.2223
      9 C          64.4595   83.5741   12.2363 C.3     1  UNL1        0.0607
     10 C          62.4146   83.0635   14.3067 C.3     1  UNL1        0.1959
     11 O          61.5381   81.8652   14.5213 O.3     1  UNL1       -0.3374
     12 C          61.6366   80.6886   13.5963 C.3     1  UNL1        0.2591
     13 C          62.6117   80.7101   12.4566 C.2     1  UNL1        0.3194
     14 N          62.7102   79.5334   11.5316 N.pl3   1  UNL1       -0.2480
     15 N          63.4882   81.9083   12.2420 N.2     1  UNL1       -0.0693
     16 H          62.1349   78.7470   11.6724 H       1  UNL1        0.2882
     17 H          63.3501   79.5476   10.7836 H       1  UNL1        0.2882
     18 N          63.6487   88.2537   12.7004 N.pl3   1  UNL1       -0.2965
     19 H          64.4181   88.8549   12.5750 H       1  UNL1        0.1537
     20 C          59.0025   90.5232   11.6313 C.3     1  UNL1        0.1537
     21 N          60.1972   89.6186   11.5649 N.ar    1  UNL1       -0.2476
     22 N          61.3803   89.6514   12.4864 N.ar    1  UNL1       -0.1541
     23 C          62.3328   88.5754   12.0563 C.ar    1  UNL1        0.1533
     24 C          61.7383   87.8776   10.8690 C.ar    1  UNL1        0.0507
     25 C          62.2283   86.7384   10.0252 C.ar    1  UNL1        0.0052
     26 C          61.3985   86.2439    8.8777 C.ar    1  UNL1        0.0116
     27 C          60.0786   86.8886    8.5740 C.ar    1  UNL1        0.0592
     28 CL         59.2487   86.3941    7.4264 Cl      1  UNL1       -0.0822
     29 C          59.5886   88.0278    9.4178 C.ar    1  UNL1        0.0302
     30 C          60.4184   88.5223   10.5653 C.ar    1  UNL1        0.0815
@<TRIPOS>BOND
     1    20    21    1
     2    21    22   ar
     3    22    23   ar
     4    23    18    1
     5    18     1    1
     6     1     2   ar
     7     2     3   ar
     8     3     4   ar
     9     4     5    1
    10     4     6   ar
    11     6     8    1
    12     8     9    1
    13     8    10    1
    14    10    11    1
    15    11    12    1
    16    12    13    1
    17    13    14    1
    18    13    15    2
    19     6     7   ar
    20    23    24   ar
    21    24    25   ar
    22    25    26   ar
    23    26    27   ar
    24    27    28    1
    25    27    29   ar
    26    29    30   ar
    27    30    21   ar
    28     7     1   ar
    29    30    24   ar
    30    15     8    1
    31    18    19    1
    32    14    16    1
    33    14    17    1
@<TRIPOS>MOLECULE
*****
 30 33 0 0 0
SMALL
GASTEIGER

@<TRIPOS>ATOM
      1 C          61.9906   87.5988   10.9632 C.ar    1  UNL1        0.0494
      2 C          62.2323   87.5242    9.4847 C.ar    1  UNL1        0.0169
      3 C          62.7163   86.2457    8.8674 C.ar    1  UNL1        0.0307
      4 C          62.9587   85.0417    9.7287 C.ar    1  UNL1        0.1402
      5 F          63.4427   83.7632    9.1115 F       1  UNL1       -0.2044
      6 C          62.7169   85.1164   11.2072 C.ar    1  UNL1        0.0528
      7 C          62.2329   86.3949   11.8245 C.ar    1  UNL1        0.0167
      8 C          62.9593   83.9124   12.0685 C.3     1  UNL1        0.2223
      9 C          62.3293   83.2567   10.8755 C.3     1  UNL1        0.0607
     10 C          63.5051   84.9862   12.9624 C.3     1  UNL1        0.1959
     11 O          64.0744   84.6284   14.3033 O.3     1  UNL1       -0.3374
     12 C          64.0979   83.1967   14.7502 C.3     1  UNL1        0.2591
     13 C          63.5521   82.1229   13.8563 C.2     1  UNL1        0.3194
     14 N          63.5757   80.6912   14.3032 N.pl3   1  UNL1       -0.2480
     15 N          62.9828   82.4808   12.5155 N.2     1  UNL1       -0.0693
     16 H          63.9493   80.4564   15.1833 H       1  UNL1        0.2882
     17 H          63.2175   79.9864   13.7165 H       1  UNL1        0.2882
     18 N          61.5065   88.8774   11.5805 N.pl3   1  UNL1       -0.2965
     19 H          60.5783   89.1727   11.4373 H       1  UNL1        0.1537
     20 C          64.0608   90.9219   15.7249 C.3     1  UNL1        0.1537
     21 N          63.6107   90.6459   14.3209 N.ar    1  UNL1       -0.2476
     22 N          62.5670   89.6503   13.9092 N.ar    1  UNL1       -0.1541
     23 C          62.4367   89.7062   12.4159 C.ar    1  UNL1        0.1533
     24 C          63.3998   90.7362   11.9047 C.ar    1  UNL1        0.0507
     25 C          63.7098   91.2204   10.5193 C.ar    1  UNL1        0.0052
     26 C          64.7454   92.2853   10.3112 C.ar    1  UNL1        0.0116
     27 C          65.4711   92.8661   11.4886 C.ar    1  UNL1        0.0592
     28 CL         66.5067   93.9311   11.2804 Cl      1  UNL1       -0.0822
     29 C          65.1611   92.3820   12.8740 C.ar    1  UNL1        0.0302
     30 C          64.1254   91.3170   13.0821 C.ar    1  UNL1        0.0815
@<TRIPOS>BOND
     1    20    21    1
     2    21    22   ar
     3    22    23   ar
     4    23    18    1
     5    18     1    1
     6     1     2   ar
     7     2     3   ar
     8     3     4   ar
     9     4     5    1
    10     4     6   ar
    11     6     8    1
    12     8     9    1
    13     8    10    1
    14    10    11    1
    15    11    12    1
    16    12    13    1
    17    13    14    1
    18    13    15    2
    19     6     7   ar
    20    23    24   ar
    21    24    25   ar
    22    25    26   ar
    23    26    27   ar
    24    27    28    1
    25    27    29   ar
    26    29    30   ar
    27    30    21   ar
    28     7     1   ar
    29    30    24   ar
    30    15     8    1
    31    18    19    1
    32    14    16    1
    33    14    17    1
