@<TRIPOS>MOLECULE
*****
 26 29 0 0 0
SMALL
GASTEIGER

@<TRIPOS>ATOM
      1 C          61.7751   92.6916    2.1853 C.ar    1  UNL1        0.1721
      2 C          62.2797   92.7466    0.7739 C.ar    1  UNL1        0.0362
      3 C          61.3613   93.1666   -0.3352 C.ar    1  UNL1       -0.0062
      4 C          59.9382   93.5316   -0.0328 C.ar    1  UNL1        0.0630
      5 C          59.4335   93.4765    1.3787 C.ar    1  UNL1        0.0456
      6 C          60.3520   93.0565    2.4877 C.ar    1  UNL1        0.1726
      7 C          59.0197   93.9516   -1.1419 C.ar    1  UNL1        0.2260
      8 C          57.5966   94.3166   -0.8395 C.ar    1  UNL1        0.0695
      9 C          56.6781   94.7366   -1.9485 C.ar    1  UNL1        0.0150
     10 C          55.2549   95.1016   -1.6460 C.ar    1  UNL1        0.0037
     11 C          54.3365   95.5216   -2.7551 C.ar    1  UNL1        0.0401
     12 C          54.8412   95.5766   -4.1666 C.ar    1  UNL1        0.1726
     13 C          56.2643   95.2117   -4.4690 C.ar    1  UNL1        0.1782
     14 C          57.1828   94.7917   -3.3600 C.ar    1  UNL1        0.1068
     15 C          58.6059   94.4267   -3.6624 C.ar    1  UNL1        0.2929
     16 N          59.5243   94.0067   -2.5533 N.ar    1  UNL1       -0.1641
     17 C          60.9475   93.6417   -2.8558 C.3     1  UNL1        0.3269
     18 C          61.8660   93.2217   -1.7467 C.3     1  UNL1        0.1119
     19 C          63.4003   90.9504    3.2231 C.3     1  UNL1        0.2526
     20 O          62.6936   92.2715    3.2944 O.3     1  UNL1       -0.4684
     21 O          59.8473   93.0015    3.8992 O.3     1  UNL1       -0.4684
     22 C          58.9318   91.8925    4.3257 C.3     1  UNL1        0.2526
     23 O          53.9227   95.9966   -5.2757 O.3     1  UNL1       -0.4684
     24 C          52.5264   96.4469   -4.9632 C.3     1  UNL1        0.2526
     25 O          56.7689   95.2667   -5.8805 O.3     1  UNL1       -0.4682
     26 C          56.5147   94.1198   -6.8132 C.3     1  UNL1        0.2526
@<TRIPOS>UNITY_ATOM_ATTR
16 1
charge 1
@<TRIPOS>BOND
     1    19    20    1
     2    20     1    1
     3     1     2   ar
     4     2     3   ar
     5     3     4   ar
     6     4     5   ar
     7     5     6   ar
     8     6    21    1
     9    21    22    1
    10     4     7    1
    11     7     8   ar
    12     8     9   ar
    13     9    10   ar
    14    10    11   ar
    15    11    12   ar
    16    12    23    1
    17    23    24    1
    18    12    13   ar
    19    13    25    1
    20    25    26    1
    21    13    14   ar
    22    14    15   ar
    23    15    16   ar
    24    16    17    1
    25    17    18    1
    26     6     1   ar
    27    16     7   ar
    28    18     3    1
    29    14     9   ar
@<TRIPOS>MOLECULE
*****
 26 29 0 0 0
SMALL
GASTEIGER

@<TRIPOS>ATOM
      1 C          73.1004   81.0134   10.1572 C.ar    1  UNL1        0.1721
      2 C          73.1066   81.1432   11.6515 C.ar    1  UNL1        0.0362
      3 C          72.8539   79.9394   12.5100 C.ar    1  UNL1       -0.0062
      4 C          72.5949   78.6058   11.8742 C.ar    1  UNL1        0.0630
      5 C          72.5887   78.4760   10.3799 C.ar    1  UNL1        0.0456
      6 C          72.8414   79.6798    9.5214 C.ar    1  UNL1        0.1726
      7 C          72.3422   77.4020   12.7327 C.ar    1  UNL1        0.2260
      8 C          72.0832   76.0684   12.0969 C.ar    1  UNL1        0.0695
      9 C          71.8305   74.8646   12.9554 C.ar    1  UNL1        0.0150
     10 C          71.5715   73.5309   12.3194 C.ar    1  UNL1        0.0037
     11 C          71.3188   72.3271   13.1779 C.ar    1  UNL1        0.0401
     12 C          71.3250   72.4570   14.6723 C.ar    1  UNL1        0.1726
     13 C          71.5840   73.7906   15.3082 C.ar    1  UNL1        0.1782
     14 C          71.8368   74.9944   14.4497 C.ar    1  UNL1        0.1068
     15 C          72.0958   76.3281   15.0855 C.ar    1  UNL1        0.2929
     16 N          72.3485   77.5318   14.2270 N.ar    1  UNL1       -0.1641
     17 C          72.6075   78.8655   14.8629 C.3     1  UNL1        0.3269
     18 C          72.8602   80.0693   14.0044 C.3     1  UNL1        0.1119
     19 C          72.2263   83.1484    8.9623 C.3     1  UNL1        0.2526
     20 O          73.3531   82.2172    9.2987 O.3     1  UNL1       -0.4684
     21 O          72.8351   79.5499    8.0270 O.3     1  UNL1       -0.4684
     22 C          71.6369   79.9925    7.2407 C.3     1  UNL1        0.2526
     23 O          71.0723   71.2532   15.5308 O.3     1  UNL1       -0.4684
     24 C          71.4250   69.8851   15.0268 C.3     1  UNL1        0.2526
     25 O          71.5903   73.9205   16.8025 O.3     1  UNL1       -0.4682
     26 C          72.8054   73.5191   17.5851 C.3     1  UNL1        0.2526
@<TRIPOS>UNITY_ATOM_ATTR
16 1
charge 1
@<TRIPOS>BOND
     1    19    20    1
     2    20     1    1
     3     1     2   ar
     4     2     3   ar
     5     3     4   ar
     6     4     5   ar
     7     5     6   ar
     8     6    21    1
     9    21    22    1
    10     4     7    1
    11     7     8   ar
    12     8     9   ar
    13     9    10   ar
    14    10    11   ar
    15    11    12   ar
    16    12    23    1
    17    23    24    1
    18    12    13   ar
    19    13    25    1
    20    25    26    1
    21    13    14   ar
    22    14    15   ar
    23    15    16   ar
    24    16    17    1
    25    17    18    1
    26     6     1   ar
    27    16     7   ar
    28    18     3    1
    29    14     9   ar
@<TRIPOS>MOLECULE
*****
 26 29 0 0 0
SMALL
GASTEIGER

@<TRIPOS>ATOM
      1 C          61.3505   87.0624   10.2677 C.ar    1  UNL1        0.1721
      2 C          61.4829   88.3808    9.5646 C.ar    1  UNL1        0.0362
      3 C          62.3325   89.4653   10.1579 C.ar    1  UNL1       -0.0062
      4 C          63.0496   89.2314   11.4544 C.ar    1  UNL1        0.0630
      5 C          62.9172   87.9131   12.1576 C.ar    1  UNL1        0.0456
      6 C          62.0677   86.8286   11.5642 C.ar    1  UNL1        0.1726
      7 C          63.8992   90.3160   12.0478 C.ar    1  UNL1        0.2260
      8 C          64.6164   90.0821   13.3443 C.ar    1  UNL1        0.0695
      9 C          65.4660   91.1666   13.9376 C.ar    1  UNL1        0.0150
     10 C          66.1832   90.9328   15.2342 C.ar    1  UNL1        0.0037
     11 C          67.0327   92.0173   15.8275 C.ar    1  UNL1        0.0401
     12 C          67.1651   93.3357   15.1243 C.ar    1  UNL1        0.1726
     13 C          66.4480   93.5695   13.8278 C.ar    1  UNL1        0.1782
     14 C          65.5984   92.4850   13.2345 C.ar    1  UNL1        0.1068
     15 C          64.8812   92.7188   11.9380 C.ar    1  UNL1        0.2929
     16 N          64.0316   91.6343   11.3446 N.ar    1  UNL1       -0.1641
     17 C          63.3144   91.8681   10.0480 C.3     1  UNL1        0.3269
     18 C          62.4649   90.7836    9.4547 C.3     1  UNL1        0.1119
     19 C          60.1873   85.9888    8.2076 C.3     1  UNL1        0.2526
     20 O          60.5009   85.9779    9.6744 O.3     1  UNL1       -0.4684
     21 O          61.9353   85.5103   12.2674 O.3     1  UNL1       -0.4684
     22 C          62.7458   84.3329   11.8126 C.3     1  UNL1        0.2526
     23 O          68.0147   94.4202   15.7177 O.3     1  UNL1       -0.4684
     24 C          69.4342   94.1320   16.1079 C.3     1  UNL1        0.2526
     25 O          66.5804   94.8878   13.1247 O.3     1  UNL1       -0.4682
     26 C          66.5252   94.9478   11.6269 C.3     1  UNL1        0.2526
@<TRIPOS>UNITY_ATOM_ATTR
16 1
charge 1
@<TRIPOS>BOND
     1    19    20    1
     2    20     1    1
     3     1     2   ar
     4     2     3   ar
     5     3     4   ar
     6     4     5   ar
     7     5     6   ar
     8     6    21    1
     9    21    22    1
    10     4     7    1
    11     7     8   ar
    12     8     9   ar
    13     9    10   ar
    14    10    11   ar
    15    11    12   ar
    16    12    23    1
    17    23    24    1
    18    12    13   ar
    19    13    25    1
    20    25    26    1
    21    13    14   ar
    22    14    15   ar
    23    15    16   ar
    24    16    17    1
    25    17    18    1
    26     6     1   ar
    27    16     7   ar
    28    18     3    1
    29    14     9   ar
@<TRIPOS>MOLECULE
*****
 26 29 0 0 0
SMALL
GASTEIGER

@<TRIPOS>ATOM
      1 C          59.4643   90.9129    5.5269 C.ar    1  UNL1        0.1721
      2 C          60.9024   90.6972    5.1594 C.ar    1  UNL1        0.0362
      3 C          61.4885   91.4073    3.9751 C.ar    1  UNL1       -0.0062
      4 C          60.6364   92.3330    3.1585 C.ar    1  UNL1        0.0630
      5 C          59.1982   92.5486    3.5261 C.ar    1  UNL1        0.0456
      6 C          58.6122   91.8386    4.7103 C.ar    1  UNL1        0.1726
      7 C          61.2224   93.0430    1.9743 C.ar    1  UNL1        0.2260
      8 C          60.3703   93.9687    1.1577 C.ar    1  UNL1        0.0695
      9 C          60.9564   94.6788   -0.0266 C.ar    1  UNL1        0.0150
     10 C          60.1042   95.6045   -0.8432 C.ar    1  UNL1        0.0037
     11 C          60.6903   96.3146   -2.0274 C.ar    1  UNL1        0.0401
     12 C          62.1285   96.0989   -2.3950 C.ar    1  UNL1        0.1726
     13 C          62.9806   95.1732   -1.5783 C.ar    1  UNL1        0.1782
     14 C          62.3946   94.4632   -0.3941 C.ar    1  UNL1        0.1068
     15 C          63.2467   93.5375    0.4225 C.ar    1  UNL1        0.2929
     16 N          62.6606   92.8274    1.6067 N.ar    1  UNL1       -0.1641
     17 C          63.5128   91.9016    2.4234 C.3     1  UNL1        0.3269
     18 C          62.9267   91.1916    3.6076 C.3     1  UNL1        0.1119
     19 C          59.3440   88.8211    7.0632 C.3     1  UNL1        0.2526
     20 O          58.8782   90.2028    6.7111 O.3     1  UNL1       -0.4684
     21 O          57.1739   92.0542    5.0778 O.3     1  UNL1       -0.4684
     22 C          56.2213   90.8957    5.0907 C.3     1  UNL1        0.2526
     23 O          62.7146   96.8090   -3.5792 O.3     1  UNL1       -0.4684
     24 C          62.7677   96.1249   -4.9131 C.3     1  UNL1        0.2526
     25 O          64.4188   94.9576   -1.9459 O.3     1  UNL1       -0.4682
     26 C          65.4256   96.0428   -1.7039 C.3     1  UNL1        0.2526
@<TRIPOS>UNITY_ATOM_ATTR
16 1
charge 1
@<TRIPOS>BOND
     1    19    20    1
     2    20     1    1
     3     1     2   ar
     4     2     3   ar
     5     3     4   ar
     6     4     5   ar
     7     5     6   ar
     8     6    21    1
     9    21    22    1
    10     4     7    1
    11     7     8   ar
    12     8     9   ar
    13     9    10   ar
    14    10    11   ar
    15    11    12   ar
    16    12    23    1
    17    23    24    1
    18    12    13   ar
    19    13    25    1
    20    25    26    1
    21    13    14   ar
    22    14    15   ar
    23    15    16   ar
    24    16    17    1
    25    17    18    1
    26     6     1   ar
    27    16     7   ar
    28    18     3    1
    29    14     9   ar
@<TRIPOS>MOLECULE
*****
 26 29 0 0 0
SMALL
GASTEIGER

@<TRIPOS>ATOM
      1 C          61.1703   93.2522    0.3028 C.ar    1  UNL1        0.1721
      2 C          61.1190   93.1311   -1.1914 C.ar    1  UNL1        0.0362
      3 C          59.8927   93.5664   -1.9375 C.ar    1  UNL1       -0.0062
      4 C          58.7177   94.1229   -1.1894 C.ar    1  UNL1        0.0630
      5 C          58.7690   94.2440    0.3048 C.ar    1  UNL1        0.0456
      6 C          59.9953   93.8087    1.0509 C.ar    1  UNL1        0.1726
      7 C          57.4914   94.5582   -1.9355 C.ar    1  UNL1        0.2260
      8 C          56.3164   95.1147   -1.1874 C.ar    1  UNL1        0.0695
      9 C          55.0901   95.5500   -1.9334 C.ar    1  UNL1        0.0150
     10 C          53.9150   96.1065   -1.1853 C.ar    1  UNL1        0.0037
     11 C          52.6887   96.5418   -1.9314 C.ar    1  UNL1        0.0401
     12 C          52.6374   96.4207   -3.4256 C.ar    1  UNL1        0.1726
     13 C          53.8124   95.8642   -4.1737 C.ar    1  UNL1        0.1782
     14 C          55.0387   95.4289   -3.4276 C.ar    1  UNL1        0.1068
     15 C          56.2137   94.8724   -4.1757 C.ar    1  UNL1        0.2929
     16 N          57.4401   94.4371   -3.4296 N.ar    1  UNL1       -0.1641
     17 C          58.6151   93.8806   -4.1778 C.3     1  UNL1        0.3269
     18 C          59.8414   93.4453   -3.4317 C.3     1  UNL1        0.1119
     19 C          63.6646   93.6100    0.9353 C.3     1  UNL1        0.2526
     20 O          62.3966   92.8169    1.0489 O.3     1  UNL1       -0.4684
     21 O          60.0465   93.9298    2.5452 O.3     1  UNL1       -0.4684
     22 C          60.0113   92.6972    3.3992 C.3     1  UNL1        0.2526
     23 O          51.4111   96.8560   -4.1717 O.3     1  UNL1       -0.4684
     24 C          50.4680   95.8306   -4.7278 C.3     1  UNL1        0.2526
     25 O          53.7611   95.7431   -5.6679 O.3     1  UNL1       -0.4682
     26 C          54.3856   96.8015   -6.5281 C.3     1  UNL1        0.2526
@<TRIPOS>UNITY_ATOM_ATTR
16 1
charge 1
@<TRIPOS>BOND
     1    19    20    1
     2    20     1    1
     3     1     2   ar
     4     2     3   ar
     5     3     4   ar
     6     4     5   ar
     7     5     6   ar
     8     6    21    1
     9    21    22    1
    10     4     7    1
    11     7     8   ar
    12     8     9   ar
    13     9    10   ar
    14    10    11   ar
    15    11    12   ar
    16    12    23    1
    17    23    24    1
    18    12    13   ar
    19    13    25    1
    20    25    26    1
    21    13    14   ar
    22    14    15   ar
    23    15    16   ar
    24    16    17    1
    25    17    18    1
    26     6     1   ar
    27    16     7   ar
    28    18     3    1
    29    14     9   ar
@<TRIPOS>MOLECULE
*****
 26 29 0 0 0
SMALL
GASTEIGER

@<TRIPOS>ATOM
      1 C          62.8433   82.2008   14.0318 C.ar    1  UNL1        0.1721
      2 C          63.3295   83.0736   15.1506 C.ar    1  UNL1        0.0362
      3 C          63.5294   84.5427   14.9231 C.ar    1  UNL1       -0.0062
      4 C          63.2430   85.1390   13.5769 C.ar    1  UNL1        0.0630
      5 C          62.7568   84.2662   12.4581 C.ar    1  UNL1        0.0456
      6 C          62.5569   82.7971   12.6856 C.ar    1  UNL1        0.1726
      7 C          63.4429   86.6081   13.3494 C.ar    1  UNL1        0.2260
      8 C          63.1566   87.2044   12.0032 C.ar    1  UNL1        0.0695
      9 C          63.3565   88.6735   11.7758 C.ar    1  UNL1        0.0150
     10 C          63.0701   89.2698   10.4294 C.ar    1  UNL1        0.0037
     11 C          63.2700   90.7390   10.2020 C.ar    1  UNL1        0.0401
     12 C          63.7563   91.6118   11.3209 C.ar    1  UNL1        0.1726
     13 C          64.0426   91.0155   12.6671 C.ar    1  UNL1        0.1782
     14 C          63.8427   89.5464   12.8945 C.ar    1  UNL1        0.1068
     15 C          64.1291   88.9501   14.2408 C.ar    1  UNL1        0.2929
     16 N          63.9292   87.4809   14.4682 N.ar    1  UNL1       -0.1641
     17 C          64.2155   86.8847   15.8146 C.3     1  UNL1        0.3269
     18 C          64.0156   85.4155   16.0420 C.3     1  UNL1        0.1119
     19 C          61.2640   80.1449   14.2036 C.3     1  UNL1        0.2526
     20 O          62.6434   80.7316   14.2592 O.3     1  UNL1       -0.4684
     21 O          62.0707   81.9242   11.5667 O.3     1  UNL1       -0.4684
     22 C          63.0522   81.1449   10.7426 C.3     1  UNL1        0.2526
     23 O          63.9562   93.0809   11.0934 O.3     1  UNL1       -0.4684
     24 C          65.3046   93.6010   10.6918 C.3     1  UNL1        0.2526
     25 O          64.5288   91.8883   13.7859 O.3     1  UNL1       -0.4682
     26 C          66.0005   92.0893   13.9950 C.3     1  UNL1        0.2526
@<TRIPOS>UNITY_ATOM_ATTR
16 1
charge 1
@<TRIPOS>BOND
     1    19    20    1
     2    20     1    1
     3     1     2   ar
     4     2     3   ar
     5     3     4   ar
     6     4     5   ar
     7     5     6   ar
     8     6    21    1
     9    21    22    1
    10     4     7    1
    11     7     8   ar
    12     8     9   ar
    13     9    10   ar
    14    10    11   ar
    15    11    12   ar
    16    12    23    1
    17    23    24    1
    18    12    13   ar
    19    13    25    1
    20    25    26    1
    21    13    14   ar
    22    14    15   ar
    23    15    16   ar
    24    16    17    1
    25    17    18    1
    26     6     1   ar
    27    16     7   ar
    28    18     3    1
    29    14     9   ar
@<TRIPOS>MOLECULE
*****
 26 29 0 0 0
SMALL
GASTEIGER

@<TRIPOS>ATOM
      1 C          63.8180   81.9062   13.2145 C.ar    1  UNL1        0.1721
      2 C          64.0931   83.2850   13.7373 C.ar    1  UNL1        0.0362
      3 C          63.5347   84.4819   13.0263 C.ar    1  UNL1       -0.0062
      4 C          62.7012   84.3001   11.7925 C.ar    1  UNL1        0.0630
      5 C          62.4261   82.9213   11.2698 C.ar    1  UNL1        0.0456
      6 C          62.9845   81.7244   11.9808 C.ar    1  UNL1        0.1726
      7 C          62.1428   85.4970   11.0815 C.ar    1  UNL1        0.2260
      8 C          61.3093   85.3152    9.8477 C.ar    1  UNL1        0.0695
      9 C          60.7509   86.5121    9.1367 C.ar    1  UNL1        0.0150
     10 C          59.9174   86.3302    7.9029 C.ar    1  UNL1        0.0037
     11 C          59.3590   87.5272    7.1919 C.ar    1  UNL1        0.0401
     12 C          59.6341   88.9060    7.7147 C.ar    1  UNL1        0.1726
     13 C          60.4676   89.0878    8.9485 C.ar    1  UNL1        0.1782
     14 C          61.0260   87.8909    9.6595 C.ar    1  UNL1        0.1068
     15 C          61.8595   88.0727   10.8932 C.ar    1  UNL1        0.2929
     16 N          62.4179   86.8758   11.6042 N.ar    1  UNL1       -0.1641
     17 C          63.2514   87.0577   12.8381 C.3     1  UNL1        0.3269
     18 C          63.8098   85.8607   13.5491 C.3     1  UNL1        0.1119
     19 C          63.4503   79.6794   14.5013 C.3     1  UNL1        0.2526
     20 O          64.3764   80.7093   13.9255 O.3     1  UNL1       -0.4684
     21 O          62.7094   80.3456   11.4580 O.3     1  UNL1       -0.4684
     22 C          63.0368   80.0040   10.0346 C.3     1  UNL1        0.2526
     23 O          59.0757   90.1029    7.0037 O.3     1  UNL1       -0.4684
     24 C          59.4969   90.4028    5.5956 C.3     1  UNL1        0.2526
     25 O          60.7427   90.4666    9.4712 O.3     1  UNL1       -0.4682
     26 C          60.2141   90.8793   10.8130 C.3     1  UNL1        0.2526
@<TRIPOS>UNITY_ATOM_ATTR
16 1
charge 1
@<TRIPOS>BOND
     1    19    20    1
     2    20     1    1
     3     1     2   ar
     4     2     3   ar
     5     3     4   ar
     6     4     5   ar
     7     5     6   ar
     8     6    21    1
     9    21    22    1
    10     4     7    1
    11     7     8   ar
    12     8     9   ar
    13     9    10   ar
    14    10    11   ar
    15    11    12   ar
    16    12    23    1
    17    23    24    1
    18    12    13   ar
    19    13    25    1
    20    25    26    1
    21    13    14   ar
    22    14    15   ar
    23    15    16   ar
    24    16    17    1
    25    17    18    1
    26     6     1   ar
    27    16     7   ar
    28    18     3    1
    29    14     9   ar
@<TRIPOS>MOLECULE
*****
 26 29 0 0 0
SMALL
GASTEIGER

@<TRIPOS>ATOM
      1 C          62.9938   81.3199   11.4905 C.ar    1  UNL1        0.1721
      2 C          62.8159   82.3864   10.4508 C.ar    1  UNL1        0.0362
      3 C          62.8879   83.8331   10.8404 C.ar    1  UNL1       -0.0062
      4 C          63.1377   84.2134   12.2696 C.ar    1  UNL1        0.0630
      5 C          63.3156   83.1470   13.3094 C.ar    1  UNL1        0.0456
      6 C          63.2436   81.7003   12.9198 C.ar    1  UNL1        0.1726
      7 C          63.2097   85.6602   12.6592 C.ar    1  UNL1        0.2260
      8 C          63.4595   86.0405   14.0885 C.ar    1  UNL1        0.0695
      9 C          63.5315   87.4872   14.4781 C.ar    1  UNL1        0.0150
     10 C          63.7813   87.8675   15.9075 C.ar    1  UNL1        0.0037
     11 C          63.8533   89.3142   16.2970 C.ar    1  UNL1        0.0401
     12 C          63.6754   90.3807   15.2572 C.ar    1  UNL1        0.1726
     13 C          63.4255   90.0004   13.8280 C.ar    1  UNL1        0.1782
     14 C          63.3536   88.5536   13.4384 C.ar    1  UNL1        0.1068
     15 C          63.1037   88.1733   12.0091 C.ar    1  UNL1        0.2929
     16 N          63.0318   86.7266   11.6195 N.ar    1  UNL1       -0.1641
     17 C          62.7819   86.3463   10.1901 C.3     1  UNL1        0.3269
     18 C          62.7100   84.8996    9.8006 C.3     1  UNL1        0.1119
     19 C          62.8012   79.4908    9.6555 C.3     1  UNL1        0.2526
     20 O          62.9219   79.8732   11.1009 O.3     1  UNL1       -0.4684
     21 O          63.4215   80.6338   13.9596 O.3     1  UNL1       -0.4684
     22 C          62.3392   79.6207   14.1876 C.3     1  UNL1        0.2526
     23 O          63.7473   91.8274   15.6468 O.3     1  UNL1       -0.4684
     24 C          64.8200   92.2996   16.5831 C.3     1  UNL1        0.2526
     25 O          63.2477   91.0668   12.7882 O.3     1  UNL1       -0.4682
     26 C          64.4478   91.7421   12.1935 C.3     1  UNL1        0.2526
@<TRIPOS>UNITY_ATOM_ATTR
16 1
charge 1
@<TRIPOS>BOND
     1    19    20    1
     2    20     1    1
     3     1     2   ar
     4     2     3   ar
     5     3     4   ar
     6     4     5   ar
     7     5     6   ar
     8     6    21    1
     9    21    22    1
    10     4     7    1
    11     7     8   ar
    12     8     9   ar
    13     9    10   ar
    14    10    11   ar
    15    11    12   ar
    16    12    23    1
    17    23    24    1
    18    12    13   ar
    19    13    25    1
    20    25    26    1
    21    13    14   ar
    22    14    15   ar
    23    15    16   ar
    24    16    17    1
    25    17    18    1
    26     6     1   ar
    27    16     7   ar
    28    18     3    1
    29    14     9   ar
@<TRIPOS>MOLECULE
*****
 26 29 0 0 0
SMALL
GASTEIGER

@<TRIPOS>ATOM
      1 C          62.3485   82.9191   14.1500 C.ar    1  UNL1        0.1721
      2 C          62.5379   83.6044   15.4707 C.ar    1  UNL1        0.0362
      3 C          62.9387   85.0492   15.5153 C.ar    1  UNL1       -0.0062
      4 C          63.1503   85.8086   14.2392 C.ar    1  UNL1        0.0630
      5 C          62.9610   85.1232   12.9185 C.ar    1  UNL1        0.0456
      6 C          62.5601   83.6784   12.8739 C.ar    1  UNL1        0.1726
      7 C          63.5512   87.2533   14.2838 C.ar    1  UNL1        0.2260
      8 C          63.7627   88.0127   13.0077 C.ar    1  UNL1        0.0695
      9 C          64.1636   89.4574   13.0523 C.ar    1  UNL1        0.0150
     10 C          64.3752   90.2168   11.7760 C.ar    1  UNL1        0.0037
     11 C          64.7761   91.6615   11.8206 C.ar    1  UNL1        0.0401
     12 C          64.9654   92.3469   13.1415 C.ar    1  UNL1        0.1726
     13 C          64.7538   91.5876   14.4176 C.ar    1  UNL1        0.1782
     14 C          64.3529   90.1428   14.3730 C.ar    1  UNL1        0.1068
     15 C          64.1414   89.3835   15.6491 C.ar    1  UNL1        0.2929
     16 N          63.7405   87.9387   15.6045 N.ar    1  UNL1       -0.1641
     17 C          63.5289   87.1793   16.8808 C.3     1  UNL1        0.3269
     18 C          63.1280   85.7346   16.8362 C.3     1  UNL1        0.1119
     19 C          62.9531   80.4284   13.7245 C.3     1  UNL1        0.2526
     20 O          61.9477   81.4743   14.1054 O.3     1  UNL1       -0.4684
     21 O          62.3708   82.9930   11.5531 O.3     1  UNL1       -0.4684
     22 C          63.5648   82.5737   10.7478 C.3     1  UNL1        0.2526
     23 O          65.3662   93.7917   13.1860 O.3     1  UNL1       -0.4684
     24 C          66.1866   94.3770   12.0750 C.3     1  UNL1        0.2526
     25 O          64.9431   92.2730   15.7383 O.3     1  UNL1       -0.4682
     26 C          66.3246   92.6006   16.2220 C.3     1  UNL1        0.2526
@<TRIPOS>UNITY_ATOM_ATTR
16 1
charge 1
@<TRIPOS>BOND
     1    19    20    1
     2    20     1    1
     3     1     2   ar
     4     2     3   ar
     5     3     4   ar
     6     4     5   ar
     7     5     6   ar
     8     6    21    1
     9    21    22    1
    10     4     7    1
    11     7     8   ar
    12     8     9   ar
    13     9    10   ar
    14    10    11   ar
    15    11    12   ar
    16    12    23    1
    17    23    24    1
    18    12    13   ar
    19    13    25    1
    20    25    26    1
    21    13    14   ar
    22    14    15   ar
    23    15    16   ar
    24    16    17    1
    25    17    18    1
    26     6     1   ar
    27    16     7   ar
    28    18     3    1
    29    14     9   ar
