@<TRIPOS>MOLECULE
*****
 42 45 0 0 0
SMALL
GASTEIGER

@<TRIPOS>ATOM
      1 C          62.7337   90.4139   11.9841 C.3     1  UNL1        0.0314
      2 C          62.8794   91.0840   10.6500 C.3     1  UNL1        0.1519
      3 C          63.9262   92.1051   10.9844 C.2     1  UNL1        0.2409
      4 O          64.1440   91.7896   12.4346 O.2     1  UNL1       -0.2733
      5 N          64.8972   93.2357   10.8150 N.am    1  UNL1       -0.2967
      6 C          65.6755   94.3396   10.1625 C.3     1  UNL1        0.1530
      7 C          66.1672   95.2834    9.1055 C.2     1  UNL1        0.2407
      8 O          67.1633   96.0718    9.9031 O.2     1  UNL1       -0.2733
      9 N          66.3129   95.9536    7.7714 N.am    1  UNL1       -0.3030
     10 C          66.0951   96.2690    6.3213 C.3     1  UNL1        0.0898
     11 C          65.5400   96.1919    4.9298 C.3     1  UNL1        0.0260
     12 C          64.7147   95.7313    3.7651 C.3     1  UNL1        0.0312
     13 C          63.7186   94.9430    2.9674 C.ar    1  UNL1        0.0120
     14 C          64.2102   95.8869    1.9104 C.ar    1  UNL1        0.0010
     15 C          63.6552   95.8097    0.5191 C.ar    1  UNL1        0.0295
     16 C          62.6084   94.7887    0.1847 C.ar    1  UNL1        0.1431
     17 F          62.0534   94.7115   -1.2067 F       1  UNL1       -0.2041
     18 C          62.1168   93.8448    1.2417 C.ar    1  UNL1        0.0662
     19 C          62.6718   93.9220    2.6331 C.ar    1  UNL1        0.1368
     20 O          61.7008   92.7913    2.8024 O.3     1  UNL1       -0.4742
     21 C          60.9224   91.6875    3.4549 C.3     1  UNL1        0.2224
     22 C          60.4308   90.7436    4.5120 C.3     1  UNL1        0.1168
     23 N          60.2851   90.0734    5.8460 N.3     1  UNL1       -0.2882
     24 C          60.5029   89.7580    7.2962 C.3     1  UNL1        0.1317
     25 C          61.0580   89.8352    8.6875 C.2     1  UNL1        0.2403
     26 O          60.2796   88.7313    9.3401 O.2     1  UNL1       -0.2734
     27 N          61.8833   90.2957    9.8523 N.am    1  UNL1       -0.2701
     28 C          61.3917   89.3518   10.9094 C.3     1  UNL1        0.1153
     29 H          65.2615   93.2864   11.7282 H       1  UNL1        0.1499
     30 H          66.9999   96.6237    7.9909 H       1  UNL1        0.1495
     31 H          60.4703   89.1294    5.5070 H       1  UNL1        0.1237
     32 C          59.5318   88.6274    7.4655 C.3     1  UNL1        0.0233
     33 C          59.2561   87.1899    7.7938 C.3     1  UNL1        0.0019
     34 C          58.1256   88.1063    7.4304 C.3     1  UNL1        0.0019
     35 C          66.5009   94.8001   11.3273 C.3     1  UNL1        0.0553
     36 C          66.8540   93.8386   12.4231 C.ar    1  UNL1       -0.0199
     37 C          67.5788   92.5658   12.0995 C.ar    1  UNL1       -0.0019
     38 C          67.9318   91.6043   13.1953 C.ar    1  UNL1        0.0293
     39 C          67.5601   91.9156   14.6149 C.ar    1  UNL1        0.1401
     40 F          67.9131   90.9540   15.7107 F       1  UNL1       -0.2042
     41 C          66.8353   93.1883   14.9384 C.ar    1  UNL1        0.0293
     42 C          66.4822   94.1499   13.8426 C.ar    1  UNL1       -0.0019
@<TRIPOS>BOND
     1     2     1    1
     2     2     3    1
     3     3     4    2
     4     3     5   am
     5     5     6    1
     6     6    35    1
     7    35    36    1
     8    36    37   ar
     9    37    38   ar
    10    38    39   ar
    11    39    40    1
    12    39    41   ar
    13    41    42   ar
    14     6     7    1
    15     7     8    2
    16     7     9   am
    17     9    10    1
    18    10    11    1
    19    11    12    1
    20    12    13    1
    21    13    14   ar
    22    14    15   ar
    23    15    16   ar
    24    16    17    1
    25    16    18   ar
    26    18    19   ar
    27    19    20    1
    28    20    21    1
    29    21    22    1
    30    22    23    1
    31    23    24    1
    32    24    32    1
    33    32    33    1
    34    33    34    1
    35    24    25    1
    36    25    26    2
    37    25    27   am
    38    27    28    1
    39    27     2    1
    40    42    36   ar
    41    19    13   ar
    42    34    32    1
    43     5    29    1
    44     9    30    1
    45    23    31    1
@<TRIPOS>MOLECULE
*****
 42 45 0 0 0
SMALL
GASTEIGER

@<TRIPOS>ATOM
      1 C          64.5662   91.8767   11.8337 C.3     1  UNL1        0.0314
      2 C          64.1019   92.1920   10.4427 C.3     1  UNL1        0.1519
      3 C          63.0167   91.1675   10.2917 C.2     1  UNL1        0.2409
      4 O          63.1040   90.4963   11.6303 O.2     1  UNL1       -0.2733
      5 N          61.9011   90.3762    9.6758 N.am    1  UNL1       -0.2967
      6 C          60.8898   89.9133    8.6693 C.3     1  UNL1        0.1530
      7 C          60.1046   89.8348    7.3937 C.2     1  UNL1        0.2407
      8 O          59.1807   88.7009    7.7258 O.2     1  UNL1       -0.2733
      9 N          59.6403   90.1502    6.0027 N.am    1  UNL1       -0.3030
     10 C          59.5530   90.8214    4.6641 C.3     1  UNL1        0.0898
     11 C          59.8530   91.7674    3.5393 C.3     1  UNL1        0.0260
     12 C          60.5043   92.8742    2.7642 C.3     1  UNL1        0.0312
     13 C          61.4282   94.0082    2.4319 C.ar    1  UNL1        0.0120
     14 C          60.6430   93.9297    1.1563 C.ar    1  UNL1        0.0010
     15 C          60.9430   94.8757    0.0316 C.ar    1  UNL1        0.0295
     16 C          62.0282   95.9002    0.1825 C.ar    1  UNL1        0.1431
     17 F          62.3282   96.8463   -0.9422 F       1  UNL1       -0.2041
     18 C          62.8134   95.9787    1.4582 C.ar    1  UNL1        0.0662
     19 C          62.5134   95.0327    2.5829 C.ar    1  UNL1        0.1368
     20 O          63.6289   95.8241    3.1988 O.3     1  UNL1       -0.4742
     21 C          64.6402   96.2869    4.2052 C.3     1  UNL1        0.2224
     22 C          65.4254   96.3654    5.4809 C.3     1  UNL1        0.1168
     23 N          65.8897   96.0500    6.8720 N.3     1  UNL1       -0.2882
     24 C          65.9771   95.3788    8.2106 C.3     1  UNL1        0.1317
     25 C          65.6770   94.4328    9.3353 C.2     1  UNL1        0.2403
     26 O          66.6884   94.8957   10.3417 O.2     1  UNL1       -0.2734
     27 N          65.0258   93.3260   10.1105 N.am    1  UNL1       -0.2701
     28 C          65.8109   93.4045   11.3862 C.3     1  UNL1        0.1153
     29 H          61.7042   89.7553   10.4140 H       1  UNL1        0.1499
     30 H          58.9281   89.4778    5.9036 H       1  UNL1        0.1495
     31 H          65.7622   96.9933    7.2386 H       1  UNL1        0.1237
     32 C          67.0926   96.1702    8.8264 C.3     1  UNL1        0.0233
     33 C          67.6960   96.8559   10.0162 C.3     1  UNL1        0.0019
     34 C          68.4214   96.8553    8.7033 C.3     1  UNL1        0.0019
     35 C          60.2385   88.8065    9.4445 C.3     1  UNL1        0.0553
     36 C          61.0235   87.5800    9.8041 C.ar    1  UNL1       -0.0199
     37 C          61.0963   87.1280   11.2325 C.ar    1  UNL1       -0.0019
     38 C          61.8813   85.9014   11.5921 C.ar    1  UNL1        0.0293
     39 C          62.5937   85.1268   10.5231 C.ar    1  UNL1        0.1401
     40 F          63.3788   83.9003   10.8827 F       1  UNL1       -0.2042
     41 C          62.5210   85.5789    9.0947 C.ar    1  UNL1        0.0293
     42 C          61.7359   86.8054    8.7352 C.ar    1  UNL1       -0.0019
@<TRIPOS>BOND
     1     2     1    1
     2     2     3    1
     3     3     4    2
     4     3     5   am
     5     5     6    1
     6     6    35    1
     7    35    36    1
     8    36    37   ar
     9    37    38   ar
    10    38    39   ar
    11    39    40    1
    12    39    41   ar
    13    41    42   ar
    14     6     7    1
    15     7     8    2
    16     7     9   am
    17     9    10    1
    18    10    11    1
    19    11    12    1
    20    12    13    1
    21    13    14   ar
    22    14    15   ar
    23    15    16   ar
    24    16    17    1
    25    16    18   ar
    26    18    19   ar
    27    19    20    1
    28    20    21    1
    29    21    22    1
    30    22    23    1
    31    23    24    1
    32    24    32    1
    33    32    33    1
    34    33    34    1
    35    24    25    1
    36    25    26    2
    37    25    27   am
    38    27    28    1
    39    27     2    1
    40    42    36   ar
    41    19    13   ar
    42    34    32    1
    43     5    29    1
    44     9    30    1
    45    23    31    1
