@<TRIPOS>MOLECULE
*****
 30 33 0 0 0
SMALL
GASTEIGER

@<TRIPOS>ATOM
      1 C          63.3920   89.9436   15.9680 C.2     1  UNL1        0.2707
      2 O          63.4640   91.3768   16.4046 O.2     1  UNL1       -0.2707
      3 N          63.9257   89.5409   14.6253 N.am    1  UNL1       -0.2809
      4 H          63.8784   88.6002   14.3387 H       1  UNL1        0.1550
      5 C          64.5313   90.5714   13.7192 C.ar    1  UNL1        0.0504
      6 C          65.7969   91.2705   14.1186 C.ar    1  UNL1        0.0147
      7 C          66.4026   92.3011   13.2124 C.ar    1  UNL1        0.0013
      8 C          65.7426   92.6326   11.9069 C.ar    1  UNL1        0.0001
      9 C          64.4770   91.9336   11.5074 C.ar    1  UNL1        0.0013
     10 C          63.8713   90.9029   12.4136 C.ar    1  UNL1        0.0147
     11 C          66.3482   93.6631   11.0007 C.ar    1  UNL1        0.0000
     12 C          66.0638   95.1189   11.2247 C.ar    1  UNL1        0.0000
     13 C          66.6695   96.1494   10.3185 C.ar    1  UNL1        0.0000
     14 C          67.5595   95.7243    9.1884 C.ar    1  UNL1        0.0000
     15 C          67.8439   94.2687    8.9644 C.ar    1  UNL1        0.0000
     16 C          67.2382   93.2381    9.8706 C.ar    1  UNL1        0.0000
     17 C          62.7864   88.9130   16.8743 C.3     1  UNL1        0.2897
     18 O          63.5340   87.6484   17.1773 O.3     1  UNL1       -0.4656
     19 C          63.1540   84.0986   14.4379 C.ar    1  UNL1        0.0175
     20 C          64.2336   85.1135   14.2049 C.ar    1  UNL1        0.0046
     21 C          64.3603   86.2967   15.1180 C.ar    1  UNL1        0.0370
     22 C          63.4073   86.4651   16.2641 C.ar    1  UNL1        0.1393
     23 C          62.3276   85.4502   16.4971 C.ar    1  UNL1        0.0370
     24 C          62.2010   84.2669   15.5840 C.ar    1  UNL1        0.0046
     25 C          62.9691   84.1996   11.1813 C.3     1  UNL1        0.1537
     26 N          62.9423   82.9617   12.0279 N.ar    1  UNL1       -0.2488
     27 N          62.8258   81.5529   11.5263 N.ar    1  UNL1       -0.1676
     28 C          62.8388   80.6357   12.7131 C.ar    1  UNL1        0.1217
     29 C          62.9633   81.4776   13.9482 C.ar    1  UNL1        0.0412
     30 C          63.0273   82.9152   13.5248 C.ar    1  UNL1        0.0795
@<TRIPOS>BOND
     1    25    26    1
     2    26    27   ar
     3    27    28   ar
     4    28    29   ar
     5    29    30   ar
     6    30    19    1
     7    19    20   ar
     8    20    21   ar
     9    21    22   ar
    10    22    18    1
    11    18    17    1
    12    17     1    1
    13     1     2    2
    14     1     3   am
    15     3     5    1
    16     5     6   ar
    17     6     7   ar
    18     7     8   ar
    19     8    11    1
    20    11    12   ar
    21    12    13   ar
    22    13    14   ar
    23    14    15   ar
    24    15    16   ar
    25     8     9   ar
    26     9    10   ar
    27    22    23   ar
    28    23    24   ar
    29    30    26   ar
    30    24    19   ar
    31    10     5   ar
    32    16    11   ar
    33     3     4    1
@<TRIPOS>MOLECULE
*****
 30 33 0 0 0
SMALL
GASTEIGER

@<TRIPOS>ATOM
      1 C          63.6937   89.7157   15.4261 C.2     1  UNL1        0.2707
      2 O          62.4300   89.1580   16.0110 O.2     1  UNL1       -0.2707
      3 N          64.5674   88.8515   14.5661 N.am    1  UNL1       -0.2809
      4 H          65.3968   89.2175   14.1823 H       1  UNL1        0.1550
      5 C          64.1774   87.4295   14.2909 C.ar    1  UNL1        0.0504
      6 C          63.4861   87.0763   13.0074 C.ar    1  UNL1        0.0147
      7 C          63.0961   85.6543   12.7322 C.ar    1  UNL1        0.0013
      8 C          63.3974   84.5854   13.7405 C.ar    1  UNL1        0.0001
      9 C          64.0886   84.9385   15.0241 C.ar    1  UNL1        0.0013
     10 C          64.4786   86.3606   15.2993 C.ar    1  UNL1        0.0147
     11 C          63.0074   83.1634   13.4654 C.ar    1  UNL1        0.0000
     12 C          62.1763   82.4078   14.4596 C.ar    1  UNL1        0.0000
     13 C          61.7863   80.9858   14.1844 C.ar    1  UNL1        0.0000
     14 C          62.2273   80.3193   12.9150 C.ar    1  UNL1        0.0000
     15 C          63.0584   81.0749   11.9208 C.ar    1  UNL1        0.0000
     16 C          63.4484   82.4969   12.1960 C.ar    1  UNL1        0.0000
     17 C          64.0837   91.1378   15.7014 C.3     1  UNL1        0.2897
     18 O          65.4580   91.6211   15.3443 O.3     1  UNL1       -0.4656
     19 C          66.0972   94.0079   11.5834 C.ar    1  UNL1        0.0175
     20 C          65.3346   92.7173   11.5321 C.ar    1  UNL1        0.0046
     21 C          65.1215   91.9218   12.7857 C.ar    1  UNL1        0.0370
     22 C          65.6711   92.4168   14.0907 C.ar    1  UNL1        0.1393
     23 C          66.4337   93.7074   14.1420 C.ar    1  UNL1        0.0370
     24 C          66.6468   94.5030   12.8884 C.ar    1  UNL1        0.0046
     25 C          68.1338   93.2452    9.1502 C.3     1  UNL1        0.1537
     26 N          67.2464   94.4530    9.2114 N.ar    1  UNL1       -0.2488
     27 N          67.1393   95.5222    8.1648 N.ar    1  UNL1       -0.1676
     28 C          66.1370   96.5337    8.6364 C.ar    1  UNL1        0.1217
     29 C          65.6246   96.0895    9.9744 C.ar    1  UNL1        0.0412
     30 C          66.3103   94.8036   10.3297 C.ar    1  UNL1        0.0795
@<TRIPOS>BOND
     1    25    26    1
     2    26    27   ar
     3    27    28   ar
     4    28    29   ar
     5    29    30   ar
     6    30    19    1
     7    19    20   ar
     8    20    21   ar
     9    21    22   ar
    10    22    18    1
    11    18    17    1
    12    17     1    1
    13     1     2    2
    14     1     3   am
    15     3     5    1
    16     5     6   ar
    17     6     7   ar
    18     7     8   ar
    19     8    11    1
    20    11    12   ar
    21    12    13   ar
    22    13    14   ar
    23    14    15   ar
    24    15    16   ar
    25     8     9   ar
    26     9    10   ar
    27    22    23   ar
    28    23    24   ar
    29    30    26   ar
    30    24    19   ar
    31    10     5   ar
    32    16    11   ar
    33     3     4    1
@<TRIPOS>MOLECULE
*****
 30 33 0 0 0
SMALL
GASTEIGER

@<TRIPOS>ATOM
      1 C          63.5720   88.6746   15.7255 C.2     1  UNL1        0.2707
      2 O          62.6837   87.7668   16.5236 O.2     1  UNL1       -0.2707
      3 N          64.2088   88.1791   14.4611 N.am    1  UNL1       -0.2809
      4 H          64.7918   88.7749   13.9373 H       1  UNL1        0.1550
      5 C          63.9574   86.7758   13.9947 C.ar    1  UNL1        0.0504
      6 C          64.5401   85.6185   14.7506 C.ar    1  UNL1        0.0147
      7 C          64.2887   84.2152   14.2843 C.ar    1  UNL1        0.0013
      8 C          63.4546   83.9691   13.0621 C.ar    1  UNL1        0.0001
      9 C          62.8719   85.1263   12.3062 C.ar    1  UNL1        0.0013
     10 C          63.1233   86.5297   12.7726 C.ar    1  UNL1        0.0147
     11 C          63.2032   82.5658   12.5957 C.ar    1  UNL1        0.0000
     12 C          62.7129   81.5302   13.5639 C.ar    1  UNL1        0.0000
     13 C          62.4615   80.1269   13.0975 C.ar    1  UNL1        0.0000
     14 C          62.7004   79.7591   11.6631 C.ar    1  UNL1        0.0000
     15 C          63.1906   80.7947   10.6950 C.ar    1  UNL1        0.0000
     16 C          63.4421   82.1980   11.1613 C.ar    1  UNL1        0.0000
     17 C          63.8234   90.0780   16.1919 C.3     1  UNL1        0.2897
     18 O          63.4638   91.2370   15.3104 O.3     1  UNL1       -0.4656
     19 C          66.2036   92.4434   11.9506 C.ar    1  UNL1        0.0175
     20 C          64.8264   91.9317   11.6483 C.ar    1  UNL1        0.0046
     21 C          63.9132   91.5296   12.7682 C.ar    1  UNL1        0.0370
     22 C          64.3771   91.6392   14.1904 C.ar    1  UNL1        0.1393
     23 C          65.7543   92.1509   14.4927 C.ar    1  UNL1        0.0370
     24 C          66.6675   92.5530   13.3728 C.ar    1  UNL1        0.0046
     25 C          66.5273   95.4506   10.7250 C.3     1  UNL1        0.1537
     26 N          67.2657   94.2278   10.2674 N.ar    1  UNL1       -0.2488
     27 N          68.2825   94.1725    9.1660 N.ar    1  UNL1       -0.1676
     28 C          68.7622   92.7561    9.0486 C.ar    1  UNL1        0.1217
     29 C          68.0418   91.9360   10.0774 C.ar    1  UNL1        0.0412
     30 C          67.1169   92.8455   10.8306 C.ar    1  UNL1        0.0795
@<TRIPOS>BOND
     1    25    26    1
     2    26    27   ar
     3    27    28   ar
     4    28    29   ar
     5    29    30   ar
     6    30    19    1
     7    19    20   ar
     8    20    21   ar
     9    21    22   ar
    10    22    18    1
    11    18    17    1
    12    17     1    1
    13     1     2    2
    14     1     3   am
    15     3     5    1
    16     5     6   ar
    17     6     7   ar
    18     7     8   ar
    19     8    11    1
    20    11    12   ar
    21    12    13   ar
    22    13    14   ar
    23    14    15   ar
    24    15    16   ar
    25     8     9   ar
    26     9    10   ar
    27    22    23   ar
    28    23    24   ar
    29    30    26   ar
    30    24    19   ar
    31    10     5   ar
    32    16    11   ar
    33     3     4    1
@<TRIPOS>MOLECULE
*****
 30 33 0 0 0
SMALL
GASTEIGER

@<TRIPOS>ATOM
      1 C          63.6698   89.0398   15.5732 C.2     1  UNL1        0.2707
      2 O          63.8111   88.2729   14.2919 O.2     1  UNL1       -0.2707
      3 N          64.1757   90.4490   15.6636 N.am    1  UNL1       -0.2809
      4 H          64.0829   90.9524   16.5046 H       1  UNL1        0.1550
      5 C          64.8229   91.0913   14.4725 C.ar    1  UNL1        0.0504
      6 C          64.0454   91.2709   13.2023 C.ar    1  UNL1        0.0147
      7 C          64.6926   91.9132   12.0113 C.ar    1  UNL1        0.0013
      8 C          66.1172   92.3758   12.0904 C.ar    1  UNL1        0.0001
      9 C          66.8947   92.1962   13.3605 C.ar    1  UNL1        0.0013
     10 C          66.2475   91.5539   14.5516 C.ar    1  UNL1        0.0147
     11 C          66.7644   93.0181   10.8994 C.ar    1  UNL1        0.0000
     12 C          67.7548   92.2476   10.0774 C.ar    1  UNL1        0.0000
     13 C          68.4019   92.8898    8.8864 C.ar    1  UNL1        0.0000
     14 C          68.0588   94.3026    8.5172 C.ar    1  UNL1        0.0000
     15 C          67.0686   95.0732    9.3391 C.ar    1  UNL1        0.0000
     16 C          66.4213   94.4309   10.5302 C.ar    1  UNL1        0.0000
     17 C          63.0226   88.3975   16.7643 C.3     1  UNL1        0.2897
     18 O          63.4555   87.0314   17.2074 O.3     1  UNL1       -0.4656
     19 C          63.1103   83.5381   14.3918 C.ar    1  UNL1        0.0175
     20 C          61.9105   83.9998   15.1647 C.ar    1  UNL1        0.0046
     21 C          62.0256   85.1643   16.1032 C.ar    1  UNL1        0.0370
     22 C          63.3405   85.8669   16.2688 C.ar    1  UNL1        0.1393
     23 C          64.5402   85.4052   15.4960 C.ar    1  UNL1        0.0370
     24 C          64.4251   84.2408   14.5574 C.ar    1  UNL1        0.0046
     25 C          63.3673   83.6619   11.1409 C.3     1  UNL1        0.1537
     26 N          63.1133   82.4306   11.9590 N.ar    1  UNL1       -0.2488
     27 N          62.9330   81.0399   11.4264 N.ar    1  UNL1       -0.1676
     28 C          62.7033   80.1235   12.5916 C.ar    1  UNL1        0.1217
     29 C          62.7418   80.9478   13.8442 C.ar    1  UNL1        0.0412
     30 C          62.9952   82.3736   13.4532 C.ar    1  UNL1        0.0795
@<TRIPOS>BOND
     1    25    26    1
     2    26    27   ar
     3    27    28   ar
     4    28    29   ar
     5    29    30   ar
     6    30    19    1
     7    19    20   ar
     8    20    21   ar
     9    21    22   ar
    10    22    18    1
    11    18    17    1
    12    17     1    1
    13     1     2    2
    14     1     3   am
    15     3     5    1
    16     5     6   ar
    17     6     7   ar
    18     7     8   ar
    19     8    11    1
    20    11    12   ar
    21    12    13   ar
    22    13    14   ar
    23    14    15   ar
    24    15    16   ar
    25     8     9   ar
    26     9    10   ar
    27    22    23   ar
    28    23    24   ar
    29    30    26   ar
    30    24    19   ar
    31    10     5   ar
    32    16    11   ar
    33     3     4    1
@<TRIPOS>MOLECULE
*****
 30 33 0 0 0
SMALL
GASTEIGER

@<TRIPOS>ATOM
      1 C          60.7815   90.1196   10.1366 C.2     1  UNL1        0.2707
      2 O          60.2915   90.4474   11.5159 O.2     1  UNL1       -0.2707
      3 N          62.2440   90.2160    9.8176 N.am    1  UNL1       -0.2809
      4 H          62.5656   90.0009    8.9124 H       1  UNL1        0.1550
      5 C          63.2164   90.6403   10.8779 C.ar    1  UNL1        0.0504
      6 C          64.0971   91.8337   10.6538 C.ar    1  UNL1        0.0147
      7 C          65.0696   92.2579   11.7141 C.ar    1  UNL1        0.0013
      8 C          65.1614   91.4888   12.9986 C.ar    1  UNL1        0.0001
      9 C          64.2808   90.2954   13.2228 C.ar    1  UNL1        0.0013
     10 C          63.3083   89.8711   12.1624 C.ar    1  UNL1        0.0147
     11 C          66.1339   91.9130   14.0589 C.ar    1  UNL1        0.0000
     12 C          67.5937   92.0298   13.7343 C.ar    1  UNL1        0.0000
     13 C          68.5662   92.4541   14.7946 C.ar    1  UNL1        0.0000
     14 C          68.0789   92.7615   16.1795 C.ar    1  UNL1        0.0000
     15 C          66.6191   92.6447   16.5041 C.ar    1  UNL1        0.0000
     16 C          65.6466   92.2205   15.4438 C.ar    1  UNL1        0.0000
     17 C          59.8089   89.6954    9.0763 C.3     1  UNL1        0.2897
     18 O          59.8422   88.2927    8.5460 O.3     1  UNL1       -0.4656
     19 C          62.4037   85.1871   10.5569 C.ar    1  UNL1        0.0175
     20 C          62.5195   85.4119    9.0784 C.ar    1  UNL1        0.0046
     21 C          61.6657   86.4471    8.4081 C.ar    1  UNL1        0.0370
     22 C          60.6960   87.2574    9.2163 C.ar    1  UNL1        0.1393
     23 C          60.5802   87.0326   10.6948 C.ar    1  UNL1        0.0370
     24 C          61.4341   85.9974   11.3651 C.ar    1  UNL1        0.0046
     25 C          63.5704   85.3408   13.6008 C.3     1  UNL1        0.1537
     26 N          63.7938   84.2225   12.6264 N.ar    1  UNL1       -0.2488
     27 N          64.5927   82.9786   12.8800 N.ar    1  UNL1       -0.1676
     28 C          64.5502   82.1390   11.6377 C.ar    1  UNL1        0.1217
     29 C          63.7250   82.8641   10.6163 C.ar    1  UNL1        0.0412
     30 C          63.2575   84.1518   11.2273 C.ar    1  UNL1        0.0795
@<TRIPOS>BOND
     1    25    26    1
     2    26    27   ar
     3    27    28   ar
     4    28    29   ar
     5    29    30   ar
     6    30    19    1
     7    19    20   ar
     8    20    21   ar
     9    21    22   ar
    10    22    18    1
    11    18    17    1
    12    17     1    1
    13     1     2    2
    14     1     3   am
    15     3     5    1
    16     5     6   ar
    17     6     7   ar
    18     7     8   ar
    19     8    11    1
    20    11    12   ar
    21    12    13   ar
    22    13    14   ar
    23    14    15   ar
    24    15    16   ar
    25     8     9   ar
    26     9    10   ar
    27    22    23   ar
    28    23    24   ar
    29    30    26   ar
    30    24    19   ar
    31    10     5   ar
    32    16    11   ar
    33     3     4    1
@<TRIPOS>MOLECULE
*****
 30 33 0 0 0
SMALL
GASTEIGER

@<TRIPOS>ATOM
      1 C          61.2766   89.0972   10.8729 C.2     1  UNL1        0.2707
      2 O          60.1609   88.5457   11.7102 O.2     1  UNL1       -0.2707
      3 N          62.4245   88.2160   10.4784 N.am    1  UNL1       -0.2809
      4 H          63.1568   88.5779    9.9288 H       1  UNL1        0.1550
      5 C          62.4567   86.7832   10.9212 C.ar    1  UNL1        0.0504
      6 C          62.8095   86.4442   12.3392 C.ar    1  UNL1        0.0147
      7 C          62.8417   85.0114   12.7820 C.ar    1  UNL1        0.0013
      8 C          62.5212   83.9176   11.8068 C.ar    1  UNL1        0.0001
      9 C          62.1684   84.2566   10.3889 C.ar    1  UNL1        0.0013
     10 C          62.1362   85.6894    9.9460 C.ar    1  UNL1        0.0147
     11 C          62.5534   82.4849   12.2496 C.ar    1  UNL1        0.0000
     12 C          62.2021   82.1288   13.6638 C.ar    1  UNL1        0.0000
     13 C          62.2343   80.6961   14.1066 C.ar    1  UNL1        0.0000
     14 C          62.6178   79.6193   13.1353 C.ar    1  UNL1        0.0000
     15 C          62.9690   79.9753   11.7212 C.ar    1  UNL1        0.0000
     16 C          62.9368   81.4081   11.2783 C.ar    1  UNL1        0.0000
     17 C          61.2444   90.5301   10.4301 C.3     1  UNL1        0.2897
     18 O          62.5180   91.2280   10.0549 O.3     1  UNL1       -0.4656
     19 C          65.6686   91.9917   13.1759 C.ar    1  UNL1        0.0175
     20 C          64.4886   91.1236   13.4982 C.ar    1  UNL1        0.0046
     21 C          63.4384   90.8691   12.4579 C.ar    1  UNL1        0.0370
     22 C          63.5683   91.4826   11.0953 C.ar    1  UNL1        0.1393
     23 C          64.7483   92.3506   10.7730 C.ar    1  UNL1        0.0370
     24 C          65.7985   92.6052   11.8133 C.ar    1  UNL1        0.0046
     25 C          68.8849   91.5946   12.7920 C.3     1  UNL1        0.1537
     26 N          68.1972   92.0638   14.0398 N.ar    1  UNL1       -0.2488
     27 N          68.8671   92.4328   15.3301 N.ar    1  UNL1       -0.1676
     28 C          67.8027   92.8434   16.3041 C.ar    1  UNL1        0.1217
     29 C          66.4751   92.7282   15.6157 C.ar    1  UNL1        0.0412
     30 C          66.7189   92.2463   14.2162 C.ar    1  UNL1        0.0795
@<TRIPOS>BOND
     1    25    26    1
     2    26    27   ar
     3    27    28   ar
     4    28    29   ar
     5    29    30   ar
     6    30    19    1
     7    19    20   ar
     8    20    21   ar
     9    21    22   ar
    10    22    18    1
    11    18    17    1
    12    17     1    1
    13     1     2    2
    14     1     3   am
    15     3     5    1
    16     5     6   ar
    17     6     7   ar
    18     7     8   ar
    19     8    11    1
    20    11    12   ar
    21    12    13   ar
    22    13    14   ar
    23    14    15   ar
    24    15    16   ar
    25     8     9   ar
    26     9    10   ar
    27    22    23   ar
    28    23    24   ar
    29    30    26   ar
    30    24    19   ar
    31    10     5   ar
    32    16    11   ar
    33     3     4    1
@<TRIPOS>MOLECULE
*****
 30 33 0 0 0
SMALL
GASTEIGER

@<TRIPOS>ATOM
      1 C          61.5200   89.2155   10.7488 C.2     1  UNL1        0.2707
      2 O          60.5125   88.7677   11.7658 O.2     1  UNL1       -0.2707
      3 N          62.5333   88.2447   10.2190 N.am    1  UNL1       -0.2809
      4 H          63.1946   88.5386    9.5514 H       1  UNL1        0.1550
      5 C          62.5391   86.8261   10.7061 C.ar    1  UNL1        0.0504
      6 C          62.4038   85.6967    9.7283 C.ar    1  UNL1        0.0147
      7 C          62.4095   84.2780   10.2155 C.ar    1  UNL1        0.0013
      8 C          62.5506   83.9887   11.6805 C.ar    1  UNL1        0.0001
      9 C          62.6860   85.1180   12.6584 C.ar    1  UNL1        0.0013
     10 C          62.6802   86.5368   12.1712 C.ar    1  UNL1        0.0147
     11 C          62.5564   82.5701   12.1677 C.ar    1  UNL1        0.0000
     12 C          62.8945   81.4543   11.2239 C.ar    1  UNL1        0.0000
     13 C          62.9002   80.0357   11.7111 C.ar    1  UNL1        0.0000
     14 C          62.5680   79.7327   13.1421 C.ar    1  UNL1        0.0000
     15 C          62.2299   80.8485   14.0859 C.ar    1  UNL1        0.0000
     16 C          62.2241   82.2672   13.5987 C.ar    1  UNL1        0.0000
     17 C          61.5142   90.6342   10.2616 C.3     1  UNL1        0.2897
     18 O          62.8091   91.3297    9.9622 O.3     1  UNL1       -0.4656
     19 C          65.8235   91.9811   13.2392 C.ar    1  UNL1        0.0175
     20 C          65.9979   92.6612   11.9137 C.ar    1  UNL1        0.0046
     21 C          64.9931   92.4440   10.8214 C.ar    1  UNL1        0.0370
     22 C          63.8139   91.5468   11.0546 C.ar    1  UNL1        0.1393
     23 C          63.6395   90.8667   12.3801 C.ar    1  UNL1        0.0370
     24 C          64.6443   91.0839   13.4724 C.ar    1  UNL1        0.0046
     25 C          65.1510   92.4671   16.3953 C.3     1  UNL1        0.1537
     26 N          66.5192   92.4216   15.7822 N.ar    1  UNL1       -0.2488
     27 N          67.8185   92.5915   16.5122 N.ar    1  UNL1       -0.1676
     28 C          68.9308   92.4732   15.5127 C.ar    1  UNL1        0.1217
     29 C          68.3188   92.2301   14.1650 C.ar    1  UNL1        0.0412
     30 C          66.8284   92.1982   14.3315 C.ar    1  UNL1        0.0795
@<TRIPOS>BOND
     1    25    26    1
     2    26    27   ar
     3    27    28   ar
     4    28    29   ar
     5    29    30   ar
     6    30    19    1
     7    19    20   ar
     8    20    21   ar
     9    21    22   ar
    10    22    18    1
    11    18    17    1
    12    17     1    1
    13     1     2    2
    14     1     3   am
    15     3     5    1
    16     5     6   ar
    17     6     7   ar
    18     7     8   ar
    19     8    11    1
    20    11    12   ar
    21    12    13   ar
    22    13    14   ar
    23    14    15   ar
    24    15    16   ar
    25     8     9   ar
    26     9    10   ar
    27    22    23   ar
    28    23    24   ar
    29    30    26   ar
    30    24    19   ar
    31    10     5   ar
    32    16    11   ar
    33     3     4    1
@<TRIPOS>MOLECULE
*****
 30 33 0 0 0
SMALL
GASTEIGER

@<TRIPOS>ATOM
      1 C          59.4244   90.5952    5.4735 C.2     1  UNL1        0.2707
      2 O          60.9108   90.4851    5.3049 O.2     1  UNL1       -0.2707
      3 N          58.7194   89.7434    6.4871 N.am    1  UNL1       -0.2809
      4 H          57.7438   89.8156    6.5978 H       1  UNL1        0.1550
      5 C          59.5009   88.7815    7.3321 C.ar    1  UNL1        0.0504
      6 C          59.4933   87.3177    7.0044 C.ar    1  UNL1        0.0147
      7 C          60.2748   86.3559    7.8495 C.ar    1  UNL1        0.0013
      8 C          61.0640   86.8578    9.0222 C.ar    1  UNL1        0.0001
      9 C          61.0716   88.3215    9.3500 C.ar    1  UNL1        0.0013
     10 C          60.2901   89.2834    8.5049 C.ar    1  UNL1        0.0147
     11 C          61.8454   85.8960    9.8673 C.ar    1  UNL1        0.0000
     12 C          61.6381   85.8627   11.3525 C.ar    1  UNL1        0.0000
     13 C          62.4196   84.9009   12.1976 C.ar    1  UNL1        0.0000
     14 C          63.4085   83.9723   11.5574 C.ar    1  UNL1        0.0000
     15 C          63.6159   84.0055   10.0722 C.ar    1  UNL1        0.0000
     16 C          62.8343   84.9674    9.2271 C.ar    1  UNL1        0.0000
     17 C          58.6429   91.5570    4.6284 C.3     1  UNL1        0.2897
     18 O          59.2440   92.8760    4.2425 O.3     1  UNL1       -0.4656
     19 C          61.5387   93.2621    0.3909 C.ar    1  UNL1        0.0175
     20 C          62.1994   92.6726    1.6016 C.ar    1  UNL1        0.0046
     21 C          61.4345   92.5439    2.8855 C.ar    1  UNL1        0.0370
     22 C          60.0089   93.0047    2.9586 C.ar    1  UNL1        0.1393
     23 C          59.3483   93.5943    1.7479 C.ar    1  UNL1        0.0370
     24 C          60.1132   93.7230    0.4640 C.ar    1  UNL1        0.0046
     25 C          64.6459   94.2154    0.0964 C.3     1  UNL1        0.1537
     26 N          63.7318   93.8290   -1.0283 N.ar    1  UNL1       -0.2488
     27 N          64.0855   93.8130   -2.4860 N.ar    1  UNL1       -0.1676
     28 C          62.8758   93.3649   -3.2515 C.ar    1  UNL1        0.1217
     29 C          61.7746   93.1040   -2.2670 C.ar    1  UNL1        0.0412
     30 C          62.3037   93.3909   -0.8930 C.ar    1  UNL1        0.0795
@<TRIPOS>BOND
     1    25    26    1
     2    26    27   ar
     3    27    28   ar
     4    28    29   ar
     5    29    30   ar
     6    30    19    1
     7    19    20   ar
     8    20    21   ar
     9    21    22   ar
    10    22    18    1
    11    18    17    1
    12    17     1    1
    13     1     2    2
    14     1     3   am
    15     3     5    1
    16     5     6   ar
    17     6     7   ar
    18     7     8   ar
    19     8    11    1
    20    11    12   ar
    21    12    13   ar
    22    13    14   ar
    23    14    15   ar
    24    15    16   ar
    25     8     9   ar
    26     9    10   ar
    27    22    23   ar
    28    23    24   ar
    29    30    26   ar
    30    24    19   ar
    31    10     5   ar
    32    16    11   ar
    33     3     4    1
@<TRIPOS>MOLECULE
*****
 30 33 0 0 0
SMALL
GASTEIGER

@<TRIPOS>ATOM
      1 C          59.4964   90.7452    5.4430 C.2     1  UNL1        0.2707
      2 O          60.9683   90.5516    5.2286 O.2     1  UNL1       -0.2707
      3 N          58.7805   89.9496    6.4938 N.am    1  UNL1       -0.2809
      4 H          57.8144   90.0767    6.6345 H       1  UNL1        0.1550
      5 C          59.5365   88.9602    7.3302 C.ar    1  UNL1        0.0504
      6 C          60.3377   89.4309    8.5078 C.ar    1  UNL1        0.0147
      7 C          61.0937   88.4415    9.3443 C.ar    1  UNL1        0.0013
      8 C          61.0485   86.9815    9.0031 C.ar    1  UNL1        0.0001
      9 C          60.2474   86.5109    7.8256 C.ar    1  UNL1        0.0013
     10 C          59.4914   87.5002    6.9891 C.ar    1  UNL1        0.0147
     11 C          61.8045   85.9922    9.8396 C.ar    1  UNL1        0.0000
     12 C          61.5875   85.9434   11.3230 C.ar    1  UNL1        0.0000
     13 C          62.3435   84.9541   12.1595 C.ar    1  UNL1        0.0000
     14 C          63.3165   84.0135   11.5125 C.ar    1  UNL1        0.0000
     15 C          63.5335   84.0623   10.0291 C.ar    1  UNL1        0.0000
     16 C          62.7775   85.0516    9.1926 C.ar    1  UNL1        0.0000
     17 C          58.7404   91.7346    4.6065 C.3     1  UNL1        0.2897
     18 O          59.3787   93.0375    4.2258 O.3     1  UNL1       -0.4656
     19 C          61.5030   93.4339    0.2786 C.ar    1  UNL1        0.0175
     20 C          62.0922   92.5844    1.3654 C.ar    1  UNL1        0.0046
     21 C          61.3841   92.4523    2.6811 C.ar    1  UNL1        0.0370
     22 C          60.0868   93.1697    2.9100 C.ar    1  UNL1        0.1393
     23 C          59.4976   94.0191    1.8232 C.ar    1  UNL1        0.0370
     24 C          60.2056   94.1512    0.5075 C.ar    1  UNL1        0.0046
     25 C          60.1016   93.3775   -2.6681 C.3     1  UNL1        0.1537
     26 N          61.5669   93.5401   -2.3916 N.ar    1  UNL1       -0.2488
     27 N          62.6454   93.7053   -3.4210 N.ar    1  UNL1       -0.1676
     28 C          63.9561   93.8333   -2.7028 C.ar    1  UNL1        0.1217
     29 C          63.6876   93.7472   -1.2295 C.ar    1  UNL1        0.0412
     30 C          62.2110   93.5660   -1.0372 C.ar    1  UNL1        0.0795
@<TRIPOS>BOND
     1    25    26    1
     2    26    27   ar
     3    27    28   ar
     4    28    29   ar
     5    29    30   ar
     6    30    19    1
     7    19    20   ar
     8    20    21   ar
     9    21    22   ar
    10    22    18    1
    11    18    17    1
    12    17     1    1
    13     1     2    2
    14     1     3   am
    15     3     5    1
    16     5     6   ar
    17     6     7   ar
    18     7     8   ar
    19     8    11    1
    20    11    12   ar
    21    12    13   ar
    22    13    14   ar
    23    14    15   ar
    24    15    16   ar
    25     8     9   ar
    26     9    10   ar
    27    22    23   ar
    28    23    24   ar
    29    30    26   ar
    30    24    19   ar
    31    10     5   ar
    32    16    11   ar
    33     3     4    1
