@<TRIPOS>MOLECULE
*****
 31 34 0 0 0
SMALL
GASTEIGER

@<TRIPOS>ATOM
      1 C          61.9023   86.8609    9.4827 C.ar    1  UNL1        0.0656
      2 C          62.3929   87.9935   10.3352 C.ar    1  UNL1        0.0279
      3 C          61.6529   89.2982   10.3475 C.ar    1  UNL1        0.1526
      4 C          60.4222   89.4703    9.5073 C.ar    1  UNL1        0.1597
      5 F          59.6821   90.7750    9.5197 F       1  UNL1       -0.2027
      6 C          59.9316   88.3378    8.6549 C.ar    1  UNL1        0.0426
      7 C          60.6717   87.0331    8.6426 C.ar    1  UNL1        0.0643
      8 CL         60.1811   85.9006    7.7901 Cl      1  UNL1       -0.0820
      9 O          63.2451   85.0479    8.1944 O.2     1  UNL1       -0.2699
     10 C          62.6424   85.5563    9.4703 C.2     1  UNL1        0.2500
     11 N          62.7797   84.7599   10.7341 N.am    1  UNL1       -0.2733
     12 C          62.1770   85.2683   12.0101 C.3     1  UNL1        0.1110
     13 C          62.3143   84.4720   13.2739 C.3     1  UNL1        0.0939
     14 N          63.0543   83.1673   13.2616 N.3     1  UNL1       -0.2709
     15 C          63.3498   82.1708   14.3431 C.3     1  UNL1        0.0722
     16 C          64.1351   81.0465   13.7354 C.3     1  UNL1        0.0188
     17 C          64.3250   81.3482   12.2783 C.3     1  UNL1        0.0191
     18 C          63.6570   82.6589   11.9855 C.3     1  UNL1        0.0775
     19 C          63.5197   83.4553   10.7218 C.3     1  UNL1        0.1096
     20 S          62.1435   90.4307   11.2000 S.O2    1  UNL1        0.0758
     21 O          61.4604   89.8291   12.3923 O.2     1  UNL1       -0.1499
     22 O          62.8265   91.0322   10.0076 O.2     1  UNL1       -0.1499
     23 N          62.6341   91.5631   12.0524 N.pl3   1  UNL1       -0.2127
     24 H          62.0889   92.3769   12.1513 H       1  UNL1        0.1738
     25 C          63.9556   91.4558   12.7542 C.ar    1  UNL1        0.0921
     26 C          64.0867   90.6009   13.9797 C.ar    1  UNL1        0.0181
     27 C          65.4081   90.4936   14.6814 C.ar    1  UNL1        0.0015
     28 C          66.5983   91.2413   14.1576 C.ar    1  UNL1        0.0024
     29 C          66.4671   92.0963   12.9322 C.ar    1  UNL1        0.0310
     30 C          65.1457   92.2035   12.2304 C.ar    1  UNL1        0.1546
     31 F          65.0145   93.0585   11.0050 F       1  UNL1       -0.2028
@<TRIPOS>BOND
     1     9    10    2
     2    10     1    1
     3     1     2   ar
     4     2     3   ar
     5     3    20    1
     6    20    21    2
     7    20    22    2
     8    20    23    1
     9    23    25    1
    10    25    26   ar
    11    26    27   ar
    12    27    28   ar
    13    28    29   ar
    14    29    30   ar
    15    30    31    1
    16     3     4   ar
    17     4     5    1
    18     4     6   ar
    19     6     7   ar
    20     7     8    1
    21    10    11   am
    22    11    12    1
    23    12    13    1
    24    13    14    1
    25    14    15    1
    26    15    16    1
    27    16    17    1
    28    18    17    1
    29    18    19    1
    30     7     1   ar
    31    19    11    1
    32    30    25   ar
    33    18    14    1
    34    23    24    1
@<TRIPOS>MOLECULE
*****
 31 34 0 0 0
SMALL
GASTEIGER

@<TRIPOS>ATOM
      1 C          61.9589   86.9362    9.6518 C.ar    1  UNL1        0.0656
      2 C          62.4917   88.0302   10.5289 C.ar    1  UNL1        0.0279
      3 C          61.7894   89.3543   10.5867 C.ar    1  UNL1        0.1526
      4 C          60.5541   89.5845    9.7674 C.ar    1  UNL1        0.1597
      5 F          59.8518   90.9087    9.8253 F       1  UNL1       -0.2027
      6 C          60.0213   88.4906    8.8904 C.ar    1  UNL1        0.0426
      7 C          60.7236   87.1664    8.8325 C.ar    1  UNL1        0.0643
      8 CL         60.1907   86.0725    7.9554 Cl      1  UNL1       -0.0820
      9 O          63.2435   85.1279    8.2992 O.2     1  UNL1       -0.2699
     10 C          62.6612   85.6120    9.5939 C.2     1  UNL1        0.2500
     11 N          62.7811   84.7720   10.8310 N.am    1  UNL1       -0.2733
     12 C          62.1987   85.2562   12.1257 C.3     1  UNL1        0.1110
     13 C          62.3187   84.4162   13.3627 C.3     1  UNL1        0.0939
     14 N          63.0209   83.0921   13.3048 N.3     1  UNL1       -0.2709
     15 C          63.2925   82.0534   14.3524 C.3     1  UNL1        0.0722
     16 C          64.0426   80.9273   13.7050 C.3     1  UNL1        0.0188
     17 C          64.2348   81.2699   12.2574 C.3     1  UNL1        0.0191
     18 C          63.6033   82.6079   12.0100 C.3     1  UNL1        0.0775
     19 C          63.4834   83.4479   10.7731 C.3     1  UNL1        0.1096
     20 S          62.3224   90.4483   11.4638 S.O2    1  UNL1        0.0758
     21 O          62.7935   91.1924   10.2496 O.2     1  UNL1       -0.1499
     22 O          61.8512   89.7041   12.6781 O.2     1  UNL1       -0.1499
     23 N          62.8552   91.5421   12.3409 N.pl3   1  UNL1       -0.2127
     24 H          62.2373   92.1908   12.7492 H       1  UNL1        0.1738
     25 C          64.3297   91.6478   12.5960 C.ar    1  UNL1        0.0921
     26 C          65.2214   92.3005   11.5818 C.ar    1  UNL1        0.0181
     27 C          66.6958   92.4062   11.8369 C.ar    1  UNL1        0.0015
     28 C          67.2784   91.8590   13.1063 C.ar    1  UNL1        0.0024
     29 C          66.3866   91.2063   14.1205 C.ar    1  UNL1        0.0310
     30 C          64.9122   91.1006   13.8653 C.ar    1  UNL1        0.1546
     31 F          64.0204   90.4479   14.8796 F       1  UNL1       -0.2028
@<TRIPOS>BOND
     1     9    10    2
     2    10     1    1
     3     1     2   ar
     4     2     3   ar
     5     3    20    1
     6    20    21    2
     7    20    22    2
     8    20    23    1
     9    23    25    1
    10    25    26   ar
    11    26    27   ar
    12    27    28   ar
    13    28    29   ar
    14    29    30   ar
    15    30    31    1
    16     3     4   ar
    17     4     5    1
    18     4     6   ar
    19     6     7   ar
    20     7     8    1
    21    10    11   am
    22    11    12    1
    23    12    13    1
    24    13    14    1
    25    14    15    1
    26    15    16    1
    27    16    17    1
    28    18    17    1
    29    18    19    1
    30     7     1   ar
    31    19    11    1
    32    30    25   ar
    33    18    14    1
    34    23    24    1
@<TRIPOS>MOLECULE
*****
 31 34 0 0 0
SMALL
GASTEIGER

@<TRIPOS>ATOM
      1 C          64.0014   89.4085   13.9203 C.ar    1  UNL1        0.0656
      2 C          64.7844   90.4849   13.2284 C.ar    1  UNL1        0.0279
      3 C          65.2676   91.6758   14.0018 C.ar    1  UNL1        0.1526
      4 C          64.9679   91.7904   15.4672 C.ar    1  UNL1        0.1597
      5 F          65.4511   92.9813   16.2405 F       1  UNL1       -0.2027
      6 C          64.1850   90.7142   16.1590 C.ar    1  UNL1        0.0426
      7 C          63.7017   89.5232   15.3855 C.ar    1  UNL1        0.0643
      8 CL         62.9188   88.4470   16.0774 Cl      1  UNL1       -0.0820
      9 O          63.9221   86.8358   13.5678 O.2     1  UNL1       -0.2699
     10 C          63.5182   88.2176   13.1469 C.2     1  UNL1        0.2500
     11 N          62.6309   88.4087   11.9525 N.am    1  UNL1       -0.2733
     12 C          62.2270   89.7905   11.5317 C.3     1  UNL1        0.1110
     13 C          61.3398   89.9815   10.3373 C.3     1  UNL1        0.0939
     14 N          60.8565   88.7906    9.5639 N.3     1  UNL1       -0.2709
     15 C          59.9792   88.6686    8.3534 C.3     1  UNL1        0.0722
     16 C          59.8409   87.2113    8.0262 C.3     1  UNL1        0.0188
     17 C          60.6328   86.4326    9.0345 C.3     1  UNL1        0.0191
     18 C          61.2605   87.4087    9.9849 C.3     1  UNL1        0.0775
     19 C          62.1477   87.2177   11.1792 C.3     1  UNL1        0.1096
     20 S          66.0506   92.7520   13.3099 S.O2    1  UNL1        0.0758
     21 O          67.1791   92.5534   14.2779 O.2     1  UNL1       -0.1499
     22 O          64.9220   92.9506   12.3419 O.2     1  UNL1       -0.1499
     23 N          66.8334   93.8282   12.6181 N.pl3   1  UNL1       -0.2127
     24 H          67.0417   94.6665   13.0905 H       1  UNL1        0.1738
     25 C          67.2990   93.6273   11.2063 C.ar    1  UNL1        0.0921
     26 C          67.9186   92.3233   10.7993 C.ar    1  UNL1        0.0181
     27 C          68.3841   92.1224    9.3876 C.ar    1  UNL1        0.0015
     28 C          68.2301   93.2256    8.3829 C.ar    1  UNL1        0.0024
     29 C          67.6106   94.5295    8.7899 C.ar    1  UNL1        0.0310
     30 C          67.1450   94.7304   10.2017 C.ar    1  UNL1        0.1546
     31 F          66.5254   96.0345   10.6087 F       1  UNL1       -0.2028
@<TRIPOS>BOND
     1     9    10    2
     2    10     1    1
     3     1     2   ar
     4     2     3   ar
     5     3    20    1
     6    20    21    2
     7    20    22    2
     8    20    23    1
     9    23    25    1
    10    25    26   ar
    11    26    27   ar
    12    27    28   ar
    13    28    29   ar
    14    29    30   ar
    15    30    31    1
    16     3     4   ar
    17     4     5    1
    18     4     6   ar
    19     6     7   ar
    20     7     8    1
    21    10    11   am
    22    11    12    1
    23    12    13    1
    24    13    14    1
    25    14    15    1
    26    15    16    1
    27    16    17    1
    28    18    17    1
    29    18    19    1
    30     7     1   ar
    31    19    11    1
    32    30    25   ar
    33    18    14    1
    34    23    24    1
@<TRIPOS>MOLECULE
*****
 31 34 0 0 0
SMALL
GASTEIGER

@<TRIPOS>ATOM
      1 C          63.3971   88.4537   13.1533 C.ar    1  UNL1        0.0656
      2 C          63.5348   86.9622   13.0712 C.ar    1  UNL1        0.0279
      3 C          63.9041   86.1747   14.2932 C.ar    1  UNL1        0.1526
      4 C          64.1356   86.8786   15.5974 C.ar    1  UNL1        0.1597
      5 F          64.5049   86.0911   16.8195 F       1  UNL1       -0.2027
      6 C          63.9979   88.3699   15.6796 C.ar    1  UNL1        0.0426
      7 C          63.6286   89.1575   14.4575 C.ar    1  UNL1        0.0643
      8 CL         63.4909   90.6489   14.5396 Cl      1  UNL1       -0.0820
      9 O          63.6853   90.5625   11.6635 O.2     1  UNL1       -0.2699
     10 C          63.0278   89.2412   11.9312 C.2     1  UNL1        0.2500
     11 N          62.0009   88.7074   10.9769 N.am    1  UNL1       -0.2733
     12 C          61.3434   87.3861   11.2447 C.3     1  UNL1        0.1110
     13 C          60.3165   86.8522   10.2904 C.3     1  UNL1        0.0939
     14 N          59.9473   87.6398    9.0683 N.3     1  UNL1       -0.2709
     15 C          58.9775   87.3708    7.9561 C.3     1  UNL1        0.0722
     16 C          59.0357   88.5259    7.0009 C.3     1  UNL1        0.0188
     17 C          60.0414   89.5088    7.5229 C.3     1  UNL1        0.0191
     18 C          60.6048   88.9611    8.8006 C.3     1  UNL1        0.0775
     19 C          61.6317   89.4949    9.7549 C.3     1  UNL1        0.1096
     20 S          64.0418   84.6833   14.2110 S.O2    1  UNL1        0.0758
     21 O          65.5340   84.8169   14.2866 O.2     1  UNL1       -0.1499
     22 O          62.5497   84.5497   14.1355 O.2     1  UNL1       -0.1499
     23 N          64.1795   83.1920   14.1288 N.pl3   1  UNL1       -0.2127
     24 H          64.4709   82.6803   14.9179 H       1  UNL1        0.1738
     25 C          63.8733   82.4801   12.8444 C.ar    1  UNL1        0.0921
     26 C          64.3172   83.0670   11.5374 C.ar    1  UNL1        0.0181
     27 C          64.0110   82.3552   10.2530 C.ar    1  UNL1        0.0015
     28 C          63.2609   81.0564   10.2758 C.ar    1  UNL1        0.0024
     29 C          62.8170   80.4695   11.5829 C.ar    1  UNL1        0.0310
     30 C          63.1232   81.1814   12.8673 C.ar    1  UNL1        0.1546
     31 F          62.6793   80.5945   14.1743 F       1  UNL1       -0.2028
@<TRIPOS>BOND
     1     9    10    2
     2    10     1    1
     3     1     2   ar
     4     2     3   ar
     5     3    20    1
     6    20    21    2
     7    20    22    2
     8    20    23    1
     9    23    25    1
    10    25    26   ar
    11    26    27   ar
    12    27    28   ar
    13    28    29   ar
    14    29    30   ar
    15    30    31    1
    16     3     4   ar
    17     4     5    1
    18     4     6   ar
    19     6     7   ar
    20     7     8    1
    21    10    11   am
    22    11    12    1
    23    12    13    1
    24    13    14    1
    25    14    15    1
    26    15    16    1
    27    16    17    1
    28    18    17    1
    29    18    19    1
    30     7     1   ar
    31    19    11    1
    32    30    25   ar
    33    18    14    1
    34    23    24    1
@<TRIPOS>MOLECULE
*****
 31 34 0 0 0
SMALL
GASTEIGER

@<TRIPOS>ATOM
      1 C          63.5914   88.4884   14.0265 C.ar    1  UNL1        0.0656
      2 C          63.8542   87.0324   13.7795 C.ar    1  UNL1        0.0279
      3 C          63.8799   86.0692   14.9291 C.ar    1  UNL1        0.1526
      4 C          63.6429   86.5622   16.3259 C.ar    1  UNL1        0.1597
      5 F          63.6687   85.5990   17.4755 F       1  UNL1       -0.2027
      6 C          63.3801   88.0180   16.5730 C.ar    1  UNL1        0.0426
      7 C          63.3543   88.9812   15.4233 C.ar    1  UNL1        0.0643
      8 CL         63.0915   90.4372   15.6704 Cl      1  UNL1       -0.0820
      9 O          62.6991   89.1733   11.6846 O.2     1  UNL1       -0.2699
     10 C          63.5656   89.4516   12.8769 C.2     1  UNL1        0.2500
     11 N          64.4064   90.6931   12.9197 N.am    1  UNL1       -0.2733
     12 C          65.2729   90.9714   14.1120 C.3     1  UNL1        0.1110
     13 C          66.1137   92.2129   14.1548 C.3     1  UNL1        0.0939
     14 N          66.0879   93.1761   13.0052 N.3     1  UNL1       -0.2709
     15 C          66.8032   94.4726   12.7659 C.3     1  UNL1        0.0722
     16 C          66.3787   94.9956   11.4256 C.3     1  UNL1        0.0188
     17 C          65.4011   94.0223   10.8366 C.3     1  UNL1        0.0191
     18 C          65.2214   92.8977   11.8128 C.3     1  UNL1        0.0775
     19 C          64.3806   91.6563   11.7701 C.3     1  UNL1        0.1096
     20 S          64.1427   84.6133   14.6820 S.O2    1  UNL1        0.0758
     21 O          65.6085   84.9010   14.5455 O.2     1  UNL1       -0.1499
     22 O          62.6769   84.3256   14.8185 O.2     1  UNL1       -0.1499
     23 N          64.4055   83.1574   14.4349 N.pl3   1  UNL1       -0.2127
     24 H          64.8171   82.6051   15.1383 H       1  UNL1        0.1738
     25 C          64.0411   82.5427   13.1159 C.ar    1  UNL1        0.0921
     26 C          64.4981   83.1826   11.8385 C.ar    1  UNL1        0.0181
     27 C          64.1337   82.5680   10.5196 C.ar    1  UNL1        0.0015
     28 C          63.3123   81.3135   10.4782 C.ar    1  UNL1        0.0024
     29 C          62.8553   80.6737   11.7555 C.ar    1  UNL1        0.0310
     30 C          63.2197   81.2884   13.0745 C.ar    1  UNL1        0.1546
     31 F          62.7627   80.6485   14.3519 F       1  UNL1       -0.2028
@<TRIPOS>BOND
     1     9    10    2
     2    10     1    1
     3     1     2   ar
     4     2     3   ar
     5     3    20    1
     6    20    21    2
     7    20    22    2
     8    20    23    1
     9    23    25    1
    10    25    26   ar
    11    26    27   ar
    12    27    28   ar
    13    28    29   ar
    14    29    30   ar
    15    30    31    1
    16     3     4   ar
    17     4     5    1
    18     4     6   ar
    19     6     7   ar
    20     7     8    1
    21    10    11   am
    22    11    12    1
    23    12    13    1
    24    13    14    1
    25    14    15    1
    26    15    16    1
    27    16    17    1
    28    18    17    1
    29    18    19    1
    30     7     1   ar
    31    19    11    1
    32    30    25   ar
    33    18    14    1
    34    23    24    1
@<TRIPOS>MOLECULE
*****
 31 34 0 0 0
SMALL
GASTEIGER

@<TRIPOS>ATOM
      1 C          63.7444   89.4651   13.8980 C.ar    1  UNL1        0.0656
      2 C          64.7050   90.4319   13.2715 C.ar    1  UNL1        0.0279
      3 C          65.3272   91.5153   14.1017 C.ar    1  UNL1        0.1526
      4 C          64.9887   91.6319   15.5584 C.ar    1  UNL1        0.1597
      5 F          65.6109   92.7153   16.3885 F       1  UNL1       -0.2027
      6 C          64.0281   90.6651   16.1848 C.ar    1  UNL1        0.0426
      7 C          63.4059   89.5817   15.3546 C.ar    1  UNL1        0.0643
      8 CL         62.4453   88.6149   15.9812 Cl      1  UNL1       -0.0820
      9 O          62.1375   88.7329   11.9923 O.2     1  UNL1       -0.2699
     10 C          63.1222   88.3817   13.0679 C.2     1  UNL1        0.2500
     11 N          63.4848   86.9469   13.3134 N.am    1  UNL1       -0.2733
     12 C          64.4695   86.5957   14.3890 C.3     1  UNL1        0.1110
     13 C          64.8321   85.1610   14.6345 C.3     1  UNL1        0.0939
     14 N          64.2099   84.0776   13.8044 N.3     1  UNL1       -0.2709
     15 C          64.3717   82.5864   13.8158 C.3     1  UNL1        0.0722
     16 C          63.4869   82.0161   12.7472 C.3     1  UNL1        0.0188
     17 C          62.7783   83.1547   12.0754 C.3     1  UNL1        0.0191
     18 C          63.2252   84.4289   12.7288 C.3     1  UNL1        0.0775
     19 C          62.8626   85.8635   12.4833 C.3     1  UNL1        0.1096
     20 S          66.2878   92.4821   13.4751 S.O2    1  UNL1        0.0758
     21 O          65.1617   93.0983   12.6992 O.2     1  UNL1       -0.1499
     22 O          67.4140   91.8658   14.2511 O.2     1  UNL1       -0.1499
     23 N          67.2484   93.4488   12.8486 N.pl3   1  UNL1       -0.2127
     24 H          67.7009   94.1234   13.4049 H       1  UNL1        0.1738
     25 C          67.5197   93.3877   11.3746 C.ar    1  UNL1        0.0921
     26 C          68.1117   92.1483   10.7717 C.ar    1  UNL1        0.0181
     27 C          68.3830   92.0872    9.2977 C.ar    1  UNL1        0.0015
     28 C          68.0623   93.2655    8.4266 C.ar    1  UNL1        0.0024
     29 C          67.4703   94.5048    9.0295 C.ar    1  UNL1        0.0310
     30 C          67.1990   94.5659   10.5036 C.ar    1  UNL1        0.1546
     31 F          66.6071   95.8053   11.1065 F       1  UNL1       -0.2028
@<TRIPOS>BOND
     1     9    10    2
     2    10     1    1
     3     1     2   ar
     4     2     3   ar
     5     3    20    1
     6    20    21    2
     7    20    22    2
     8    20    23    1
     9    23    25    1
    10    25    26   ar
    11    26    27   ar
    12    27    28   ar
    13    28    29   ar
    14    29    30   ar
    15    30    31    1
    16     3     4   ar
    17     4     5    1
    18     4     6   ar
    19     6     7   ar
    20     7     8    1
    21    10    11   am
    22    11    12    1
    23    12    13    1
    24    13    14    1
    25    14    15    1
    26    15    16    1
    27    16    17    1
    28    18    17    1
    29    18    19    1
    30     7     1   ar
    31    19    11    1
    32    30    25   ar
    33    18    14    1
    34    23    24    1
@<TRIPOS>MOLECULE
*****
 31 34 0 0 0
SMALL
GASTEIGER

@<TRIPOS>ATOM
      1 C          62.3483   88.6820   11.8609 C.ar    1  UNL1        0.0656
      2 C          62.8789   87.2936   11.6585 C.ar    1  UNL1        0.0279
      3 C          62.1521   86.3363   10.7611 C.ar    1  UNL1        0.1526
      4 C          60.8947   86.7674   10.0660 C.ar    1  UNL1        0.1597
      5 F          60.1679   85.8101    9.1686 F       1  UNL1       -0.2027
      6 C          60.3641   88.1557   10.2683 C.ar    1  UNL1        0.0426
      7 C          61.0909   89.1131   11.1658 C.ar    1  UNL1        0.0643
      8 CL         60.5603   90.5014   11.3681 Cl      1  UNL1       -0.0820
      9 O          63.0423   89.4455   14.2452 O.2     1  UNL1       -0.2699
     10 C          63.0751   89.6394   12.7582 C.2     1  UNL1        0.2500
     11 N          63.8347   90.7906   12.1685 N.am    1  UNL1       -0.2733
     12 C          63.8675   90.9845   10.6815 C.3     1  UNL1        0.1110
     13 C          64.6270   92.1358   10.0917 C.3     1  UNL1        0.0939
     14 N          65.3538   93.0931   10.9891 N.3     1  UNL1       -0.2709
     15 C          66.1801   94.3108   10.6985 C.3     1  UNL1        0.0722
     16 C          66.6580   94.8695   12.0060 C.3     1  UNL1        0.0188
     17 C          66.1270   93.9971   13.1047 C.3     1  UNL1        0.0191
     18 C          65.3210   92.8992   12.4762 C.3     1  UNL1        0.0775
     19 C          64.5615   91.7479   13.0659 C.3     1  UNL1        0.1096
     20 S          62.6828   84.9480   10.5588 S.O2    1  UNL1        0.0758
     21 O          63.1913   85.3399    9.2031 O.2     1  UNL1       -0.1499
     22 O          62.1742   84.5561   11.9145 O.2     1  UNL1       -0.1499
     23 N          63.2134   83.5597   10.3565 N.pl3   1  UNL1       -0.2127
     24 H          63.5153   83.2733    9.4643 H       1  UNL1        0.1738
     25 C          63.2840   82.6077   11.5136 C.ar    1  UNL1        0.0921
     26 C          62.5041   81.3268   11.4797 C.ar    1  UNL1        0.0181
     27 C          62.5747   80.3749   12.6368 C.ar    1  UNL1        0.0015
     28 C          63.4253   80.7039   13.8278 C.ar    1  UNL1        0.0024
     29 C          64.2051   81.9847   13.8617 C.ar    1  UNL1        0.0310
     30 C          64.1344   82.9367   12.7045 C.ar    1  UNL1        0.1546
     31 F          64.9143   84.2176   12.7385 F       1  UNL1       -0.2028
@<TRIPOS>BOND
     1     9    10    2
     2    10     1    1
     3     1     2   ar
     4     2     3   ar
     5     3    20    1
     6    20    21    2
     7    20    22    2
     8    20    23    1
     9    23    25    1
    10    25    26   ar
    11    26    27   ar
    12    27    28   ar
    13    28    29   ar
    14    29    30   ar
    15    30    31    1
    16     3     4   ar
    17     4     5    1
    18     4     6   ar
    19     6     7   ar
    20     7     8    1
    21    10    11   am
    22    11    12    1
    23    12    13    1
    24    13    14    1
    25    14    15    1
    26    15    16    1
    27    16    17    1
    28    18    17    1
    29    18    19    1
    30     7     1   ar
    31    19    11    1
    32    30    25   ar
    33    18    14    1
    34    23    24    1
@<TRIPOS>MOLECULE
*****
 31 34 0 0 0
SMALL
GASTEIGER

@<TRIPOS>ATOM
      1 C          45.7941   72.7018   18.6370 C.ar    1  UNL1        0.0656
      2 C          46.5924   73.9666   18.7509 C.ar    1  UNL1        0.0279
      3 C          46.0283   75.1460   19.4864 C.ar    1  UNL1        0.1526
      4 C          44.6658   75.0605   20.1080 C.ar    1  UNL1        0.1597
      5 F          44.1017   76.2398   20.8435 F       1  UNL1       -0.2027
      6 C          43.8675   73.7958   19.9941 C.ar    1  UNL1        0.0426
      7 C          44.4316   72.6164   19.2586 C.ar    1  UNL1        0.0643
      8 CL         43.6332   71.3516   19.1447 Cl      1  UNL1       -0.0820
      9 O          47.4586   70.7106   18.5177 O.2     1  UNL1       -0.2699
     10 C          46.3581   71.5224   17.9015 C.2     1  UNL1        0.2500
     11 N          45.8216   71.1550   16.5497 N.am    1  UNL1       -0.2733
     12 C          44.7211   71.9668   15.9336 C.3     1  UNL1        0.1110
     13 C          44.1846   71.5993   14.5818 C.3     1  UNL1        0.0939
     14 N          44.7486   70.4199   13.8463 N.3     1  UNL1       -0.2709
     15 C          44.4237   69.8215   12.5098 C.3     1  UNL1        0.0722
     16 C          45.3234   68.6397   12.3001 C.3     1  UNL1        0.0188
     17 C          46.2044   68.5078   13.5069 C.3     1  UNL1        0.0191
     18 C          45.8492   69.6081   14.4626 C.3     1  UNL1        0.0775
     19 C          46.3857   69.9756   15.8143 C.3     1  UNL1        0.1096
     20 S          46.8267   76.4107   19.6002 S.O2    1  UNL1        0.0758
     21 O          46.2915   76.8678   18.2756 O.2     1  UNL1       -0.1499
     22 O          47.3619   75.9536   20.9249 O.2     1  UNL1       -0.1499
     23 N          47.6251   77.6754   19.7141 N.pl3   1  UNL1       -0.2127
     24 H          48.6088   77.6396   19.6985 H       1  UNL1        0.1738
     25 C          46.9246   78.9948   19.8517 C.ar    1  UNL1        0.0921
     26 C          45.8183   79.1558   20.8518 C.ar    1  UNL1        0.0181
     27 C          45.1179   80.4751   20.9894 C.ar    1  UNL1        0.0015
     28 C          45.5238   81.6333   20.1268 C.ar    1  UNL1        0.0024
     29 C          46.6300   81.4722   19.1268 C.ar    1  UNL1        0.0310
     30 C          47.3305   80.1528   18.9892 C.ar    1  UNL1        0.1546
     31 F          48.4368   79.9917   17.9891 F       1  UNL1       -0.2028
@<TRIPOS>BOND
     1     9    10    2
     2    10     1    1
     3     1     2   ar
     4     2     3   ar
     5     3    20    1
     6    20    21    2
     7    20    22    2
     8    20    23    1
     9    23    25    1
    10    25    26   ar
    11    26    27   ar
    12    27    28   ar
    13    28    29   ar
    14    29    30   ar
    15    30    31    1
    16     3     4   ar
    17     4     5    1
    18     4     6   ar
    19     6     7   ar
    20     7     8    1
    21    10    11   am
    22    11    12    1
    23    12    13    1
    24    13    14    1
    25    14    15    1
    26    15    16    1
    27    16    17    1
    28    18    17    1
    29    18    19    1
    30     7     1   ar
    31    19    11    1
    32    30    25   ar
    33    18    14    1
    34    23    24    1
@<TRIPOS>MOLECULE
*****
 31 34 0 0 0
SMALL
GASTEIGER

@<TRIPOS>ATOM
      1 C          62.6163   89.2053   11.1779 C.ar    1  UNL1        0.0656
      2 C          63.2961   88.0166   11.7902 C.ar    1  UNL1        0.0279
      3 C          62.6369   86.6700   11.7454 C.ar    1  UNL1        0.1526
      4 C          61.2977   86.5120   11.0882 C.ar    1  UNL1        0.1597
      5 F          60.6385   85.1654   11.0434 F       1  UNL1       -0.2027
      6 C          60.6179   87.7006   10.4759 C.ar    1  UNL1        0.0426
      7 C          61.2772   89.0473   10.5208 C.ar    1  UNL1        0.0643
      8 CL         60.5973   90.2359    9.9085 Cl      1  UNL1       -0.0820
      9 O          63.0444   91.5373   10.1157 O.2     1  UNL1       -0.2699
     10 C          63.2755   90.5519   11.2227 C.2     1  UNL1        0.2500
     11 N          64.1658   90.9131   12.3747 N.am    1  UNL1       -0.2733
     12 C          64.3969   89.9277   13.4817 C.3     1  UNL1        0.1110
     13 C          65.2872   90.2889   14.6336 C.3     1  UNL1        0.0939
     14 N          65.9464   91.6356   14.6784 N.3     1  UNL1       -0.2709
     15 C          66.8687   92.2688   15.6777 C.3     1  UNL1        0.0722
     16 C          67.2075   93.6456   15.1882 C.3     1  UNL1        0.0188
     17 C          66.4947   93.8632   13.8864 C.3     1  UNL1        0.0191
     18 C          65.7153   92.6210   13.5714 C.3     1  UNL1        0.0775
     19 C          64.8250   92.2597   12.4195 C.3     1  UNL1        0.1096
     20 S          63.3168   85.4813   12.3577 S.O2    1  UNL1        0.0758
     21 O          63.4152   86.2109   13.6646 O.2     1  UNL1       -0.1499
     22 O          63.2184   84.7519   11.0506 O.2     1  UNL1       -0.1499
     23 N          63.9967   84.2928   12.9699 N.pl3   1  UNL1       -0.2127
     24 H          64.9322   84.3607   13.2690 H       1  UNL1        0.1738
     25 C          63.2512   83.0005   13.1265 C.ar    1  UNL1        0.0921
     26 C          63.5281   81.8573   12.1957 C.ar    1  UNL1        0.0181
     27 C          62.7826   80.5651   12.3523 C.ar    1  UNL1        0.0015
     28 C          61.7603   80.4162   13.4398 C.ar    1  UNL1        0.0024
     29 C          61.4834   81.5593   14.3706 C.ar    1  UNL1        0.0310
     30 C          62.2289   82.8515   14.2140 C.ar    1  UNL1        0.1546
     31 F          61.9520   83.9947   15.1448 F       1  UNL1       -0.2028
@<TRIPOS>BOND
     1     9    10    2
     2    10     1    1
     3     1     2   ar
     4     2     3   ar
     5     3    20    1
     6    20    21    2
     7    20    22    2
     8    20    23    1
     9    23    25    1
    10    25    26   ar
    11    26    27   ar
    12    27    28   ar
    13    28    29   ar
    14    29    30   ar
    15    30    31    1
    16     3     4   ar
    17     4     5    1
    18     4     6   ar
    19     6     7   ar
    20     7     8    1
    21    10    11   am
    22    11    12    1
    23    12    13    1
    24    13    14    1
    25    14    15    1
    26    15    16    1
    27    16    17    1
    28    18    17    1
    29    18    19    1
    30     7     1   ar
    31    19    11    1
    32    30    25   ar
    33    18    14    1
    34    23    24    1
