@<TRIPOS>MOLECULE
*****
 46 52 0 0 0
SMALL
GASTEIGER

@<TRIPOS>ATOM
      1 N          59.7447   94.6760   -3.0183 N.am    1  UNL1       -0.2222
      2 C          59.2316   93.9950   -1.7841 C.2     1  UNL1        0.3219
      3 O          57.8113   93.5858   -1.5288 O.2     1  UNL1       -0.2512
      4 N          60.3883   93.7953   -0.8501 N.am    1  UNL1       -0.1907
      5 C          61.6161   94.3527   -1.5070 C.2     1  UNL1        0.2529
      6 O          62.9990   94.3639   -0.9260 O.2     1  UNL1       -0.2724
      7 C          61.2184   94.8970   -2.8471 C.3     1  UNL1        0.1391
      8 C          60.6744   95.3955   -4.1530 C.3     1  UNL1        0.0449
      9 C          61.5897   96.0465   -5.1472 C.3     1  UNL1        0.0746
     10 N          63.0490   96.1990   -4.8354 N.3     1  UNL1       -0.2676
     11 C          63.5930   95.7005   -3.5295 C.3     1  UNL1        0.0746
     12 C          62.6777   95.0495   -2.5353 C.3     1  UNL1        0.0449
     13 C          57.8261   94.4524   -6.4851 C.ar    1  UNL1        0.2293
     14 C          58.6433   94.0612   -5.2896 C.ar    1  UNL1        0.0924
     15 C          58.9275   95.0671   -4.2138 C.ar    1  UNL1        0.1453
     16 N          58.3946   96.4641   -4.3335 N.ar    1  UNL1       -0.2084
     17 C          57.5775   96.8553   -5.5289 C.ar    1  UNL1        0.2027
     18 N          57.2932   95.8494   -6.6048 N.ar    1  UNL1       -0.1892
     19 C          56.9212   92.1271   -7.2090 C.3     1  UNL1        0.2542
     20 O          57.5418   93.4466   -7.5610 O.3     1  UNL1       -0.4560
     21 C          60.3276   93.1512    0.5032 C.ar    1  UNL1        0.0622
     22 C          59.1235   93.3502    1.3752 C.ar    1  UNL1        0.0154
     23 C          59.0629   92.7061    2.7286 C.ar    1  UNL1        0.0013
     24 C          60.2064   91.8630    3.2098 C.ar    1  UNL1        0.0001
     25 C          61.4106   91.6640    2.3377 C.ar    1  UNL1        0.0013
     26 C          61.4711   92.3081    0.9844 C.ar    1  UNL1        0.0154
     27 C          60.1458   91.2189    4.5632 C.ar    1  UNL1        0.0000
     28 C          61.4060   91.0001    5.3467 C.ar    1  UNL1        0.0000
     29 C          61.3454   90.3560    6.7001 C.ar    1  UNL1        0.0015
     30 C          60.0245   89.9307    7.2697 C.ar    1  UNL1        0.0194
     31 C          58.7643   90.1496    6.4861 C.ar    1  UNL1        0.0015
     32 C          58.8249   90.7936    5.1329 C.ar    1  UNL1        0.0000
     33 C          59.9639   89.2866    8.6230 C.2     1  UNL1        0.1052
     34 C          60.1526   89.9810    9.9392 C.2     1  UNL1        0.0820
     35 C          60.0093   88.9586   11.0274 C.2     1  UNL1        0.2877
     36 O          60.1232   89.2170   12.5006 O.2     1  UNL1       -0.2664
     37 N          59.7319   87.6323   10.3838 N.am    1  UNL1       -0.0753
     38 N          59.7038   87.8351    8.8978 N.2     1  UNL1       -0.1557
     39 C          63.9643   96.8500   -5.8297 C.3     1  UNL1        0.1183
     40 C          65.1660   96.1109   -6.3389 C.ar    1  UNL1        0.0712
     41 N          66.5244   96.7420   -6.2585 N.ar    1  UNL1       -0.2471
     42 C          67.7262   96.0027   -6.7677 C.ar    1  UNL1        0.0985
     43 C          67.5696   94.6324   -7.3574 C.ar    1  UNL1        0.0203
     44 C          66.2112   94.0013   -7.4378 C.ar    1  UNL1       -0.0015
     45 C          65.0095   94.7405   -6.9286 C.ar    1  UNL1       -0.0069
     46 C          63.6511   94.1094   -7.0091 C.3     1  UNL1        0.0323
@<TRIPOS>BOND
     1    19    20    1
     2    20    13    1
     3    13    14   ar
     4    14    15   ar
     5    15     1    1
     6     1     2   am
     7     2     3    2
     8     2     4   am
     9     4    21    1
    10    21    22   ar
    11    22    23   ar
    12    23    24   ar
    13    24    27    1
    14    27    28   ar
    15    28    29   ar
    16    29    30   ar
    17    30    33    1
    18    33    34    2
    19    34    35    1
    20    35    36    2
    21    35    37    1
    22    37    38    2
    23    30    31   ar
    24    31    32   ar
    25    24    25   ar
    26    25    26   ar
    27     4     5   am
    28     5     6    2
    29     5     7    1
    30     7     8    1
    31     8     9    1
    32     9    10    1
    33    10    39    1
    34    39    40    1
    35    40    41   ar
    36    41    42   ar
    37    42    43   ar
    38    43    44   ar
    39    44    45   ar
    40    45    46    1
    41    10    11    1
    42    11    12    1
    43    15    16   ar
    44    16    17   ar
    45    17    18   ar
    46    18    13   ar
    47     7     1    1
    48    45    40   ar
    49    26    21   ar
    50    12     7    1
    51    32    27   ar
    52    38    33    1
@<TRIPOS>MOLECULE
*****
 46 52 0 0 0
SMALL
GASTEIGER

@<TRIPOS>ATOM
      1 N          59.9171   94.1412   -1.6741 N.am    1  UNL1       -0.2222
      2 C          59.3829   93.5063   -0.4243 C.2     1  UNL1        0.3219
      3 O          57.9403   93.2237   -0.1262 O.2     1  UNL1       -0.2512
      4 N          60.5448   93.2037    0.4749 N.am    1  UNL1       -0.1907
      5 C          61.7970   93.6515   -0.2190 C.2     1  UNL1        0.2529
      6 O          63.1921   93.5396    0.3204 O.2     1  UNL1       -0.2724
      7 C          61.4090   94.2309   -1.5472 C.3     1  UNL1        0.1391
      8 C          60.8724   94.7775   -2.8368 C.3     1  UNL1        0.0449
      9 C          61.8116   95.3467   -3.8586 C.3     1  UNL1        0.0746
     10 N          63.2873   95.3692   -3.5907 N.3     1  UNL1       -0.2676
     11 C          63.8239   94.8226   -2.3011 C.3     1  UNL1        0.0746
     12 C          62.8848   94.2534   -1.2793 C.3     1  UNL1        0.0449
     13 C          57.8783   94.0921   -5.0786 C.ar    1  UNL1        0.2293
     14 C          58.6931   93.6284   -3.9076 C.ar    1  UNL1        0.0924
     15 C          59.1023   94.6048   -2.8450 C.ar    1  UNL1        0.1453
     16 N          58.6968   96.0449   -2.9534 N.ar    1  UNL1       -0.2084
     17 C          57.8821   96.5086   -4.1243 C.ar    1  UNL1        0.2027
     18 N          57.4728   95.5322   -5.1869 N.ar    1  UNL1       -0.1892
     19 C          56.5128   93.5362   -7.2177 C.3     1  UNL1        0.2542
     20 O          57.4691   93.1158   -6.1412 O.3     1  UNL1       -0.4560
     21 C          60.4680   92.5654    1.8301 C.ar    1  UNL1        0.0622
     22 C          61.6901   91.9409    2.4354 C.ar    1  UNL1        0.0154
     23 C          61.6132   91.3026    3.7906 C.ar    1  UNL1        0.0013
     24 C          60.3142   91.2887    4.5405 C.ar    1  UNL1        0.0001
     25 C          59.0920   91.9132    3.9352 C.ar    1  UNL1        0.0013
     26 C          59.1690   92.5515    2.5800 C.ar    1  UNL1        0.0154
     27 C          60.2374   90.6503    5.8958 C.ar    1  UNL1        0.0000
     28 C          59.1416   89.6734    6.2036 C.ar    1  UNL1        0.0000
     29 C          59.0647   89.0350    7.5588 C.ar    1  UNL1        0.0015
     30 C          60.0837   89.3737    8.6062 C.ar    1  UNL1        0.0194
     31 C          61.1795   90.3507    8.2984 C.ar    1  UNL1        0.0015
     32 C          61.2564   90.9890    6.9432 C.ar    1  UNL1        0.0000
     33 C          60.0069   88.7354    9.9614 C.2     1  UNL1        0.1052
     34 C          59.2612   89.2713   11.1474 C.2     1  UNL1        0.0820
     35 C          59.4556   88.3162   12.2875 C.2     1  UNL1        0.2877
     36 O          58.8845   88.4618   13.6669 O.2     1  UNL1       -0.2664
     37 N          60.3216   87.1899   11.8063 N.am    1  UNL1       -0.0753
     38 N          60.6623   87.4490   10.3685 N.2     1  UNL1       -0.1557
     39 C          64.2264   95.9384   -4.6126 C.3     1  UNL1        0.1183
     40 C          64.9052   95.0309   -5.5952 C.ar    1  UNL1        0.0712
     41 N          64.3453   93.6660   -5.8663 N.ar    1  UNL1       -0.2471
     42 C          65.0242   92.7585   -6.8490 C.ar    1  UNL1        0.0985
     43 C          66.2629   93.2159   -7.5605 C.ar    1  UNL1        0.0203
     44 C          66.8229   94.5808   -7.2893 C.ar    1  UNL1       -0.0015
     45 C          66.1440   95.4883   -6.3067 C.ar    1  UNL1       -0.0069
     46 C          66.7040   96.8532   -6.0356 C.3     1  UNL1        0.0323
@<TRIPOS>BOND
     1    19    20    1
     2    20    13    1
     3    13    14   ar
     4    14    15   ar
     5    15     1    1
     6     1     2   am
     7     2     3    2
     8     2     4   am
     9     4    21    1
    10    21    22   ar
    11    22    23   ar
    12    23    24   ar
    13    24    27    1
    14    27    28   ar
    15    28    29   ar
    16    29    30   ar
    17    30    33    1
    18    33    34    2
    19    34    35    1
    20    35    36    2
    21    35    37    1
    22    37    38    2
    23    30    31   ar
    24    31    32   ar
    25    24    25   ar
    26    25    26   ar
    27     4     5   am
    28     5     6    2
    29     5     7    1
    30     7     8    1
    31     8     9    1
    32     9    10    1
    33    10    39    1
    34    39    40    1
    35    40    41   ar
    36    41    42   ar
    37    42    43   ar
    38    43    44   ar
    39    44    45   ar
    40    45    46    1
    41    10    11    1
    42    11    12    1
    43    15    16   ar
    44    16    17   ar
    45    17    18   ar
    46    18    13   ar
    47     7     1    1
    48    45    40   ar
    49    26    21   ar
    50    12     7    1
    51    32    27   ar
    52    38    33    1
