@<TRIPOS>MOLECULE
*****
 30 33 0 0 0
SMALL
GASTEIGER

@<TRIPOS>ATOM
      1 C          64.7332   91.6045   13.1500 C.ar    1  UNL1        0.1384
      2 C          63.8494   90.9793   12.1117 C.ar    1  UNL1        0.0369
      3 C          63.5124   89.5199   12.1939 C.ar    1  UNL1        0.0032
      4 C          64.0592   88.6859   13.3144 C.ar    1  UNL1        0.0024
      5 C          64.9430   89.3111   14.3526 C.ar    1  UNL1        0.0032
      6 C          65.2800   90.7705   14.2704 C.ar    1  UNL1        0.0369
      7 C          63.7222   87.2265   13.3966 C.ar    1  UNL1        0.0275
      8 C          64.1844   86.4150   14.5704 C.ar    1  UNL1        0.0019
      9 C          63.8474   84.9556   14.6526 C.ar    1  UNL1       -0.0038
     10 C          63.0482   84.3078   13.5609 C.ar    1  UNL1       -0.0157
     11 C          62.5860   85.1194   12.3872 C.ar    1  UNL1        0.0257
     12 C          62.9230   86.5787   12.3050 C.ar    1  UNL1        0.1398
     13 F          62.4608   87.3902   11.1311 F       1  UNL1       -0.2042
     14 C          62.7112   82.8485   13.6431 C.3     1  UNL1        0.0509
     15 C          62.1228   81.5640   14.1467 C.3     1  UNL1        0.0100
     16 C          61.8703   82.8449   14.8852 C.3     1  UNL1        0.0100
     17 C          63.4351   82.3452   12.4295 C.2     1  UNL1        0.0534
     18 O          62.7130   81.5000   11.4224 O.co2   1  UNL1       -0.5489
     19 O          64.8809   82.6872   12.2230 O.co2   1  UNL1       -0.5489
     20 O          65.0702   93.0639   13.0679 O.3     1  UNL1       -0.4792
     21 C          67.2412   96.5154    9.4238 C.3     1  UNL1        0.0001
     22 C          66.6544   95.5558   10.4163 C.3     1  UNL1        0.0035
     23 C          65.9951   96.8274   10.8621 C.3     1  UNL1        0.0001
     24 C          65.8387   95.0379   11.5636 C.3     1  UNL1        0.0435
     25 C          65.8860   93.5818   11.9205 C.3     1  UNL1        0.1659
     26 C          66.7491   92.6435   11.1301 C.3     1  UNL1        0.0435
     27 C          67.5648   93.1614    9.9828 C.3     1  UNL1        0.0035
     28 C          67.9408   91.7101    9.9355 C.3     1  UNL1        0.0001
     29 C          68.5111   93.1753    8.8191 C.3     1  UNL1        0.0001
     30 C          67.5175   94.6176    9.6259 C.3     1  UNL1        0.0002
@<TRIPOS>UNITY_ATOM_ATTR
18 1
charge -1
@<TRIPOS>BOND
     1    21    22    1
     2    22    23    1
     3    22    24    1
     4    24    25    1
     5    25    20    1
     6    20     1    1
     7     1     2   ar
     8     2     3   ar
     9     3     4   ar
    10     4     7    1
    11     7     8   ar
    12     8     9   ar
    13     9    10   ar
    14    10    14    1
    15    14    17    1
    16    17    18   ar
    17    17    19   ar
    18    14    15    1
    19    15    16    1
    20    10    11   ar
    21    11    12   ar
    22    12    13    1
    23     4     5   ar
    24     5     6   ar
    25    25    26    1
    26    26    27    1
    27    27    28    1
    28    27    29    1
    29    27    30    1
    30    30    22    1
    31     6     1   ar
    32    12     7   ar
    33    16    14    1
@<TRIPOS>MOLECULE
*****
 30 33 0 0 0
SMALL
GASTEIGER

@<TRIPOS>ATOM
      1 C          64.7249   91.6123   13.1400 C.ar    1  UNL1        0.1384
      2 C          63.8460   90.9851   12.0987 C.ar    1  UNL1        0.0369
      3 C          63.5089   89.5258   12.1818 C.ar    1  UNL1        0.0032
      4 C          64.0508   88.6938   13.3062 C.ar    1  UNL1        0.0024
      5 C          64.9296   89.3210   14.3474 C.ar    1  UNL1        0.0032
      6 C          65.2667   90.7803   14.2643 C.ar    1  UNL1        0.0369
      7 C          63.7137   87.2345   13.3894 C.ar    1  UNL1        0.0275
      8 C          64.1808   86.4224   14.5609 C.ar    1  UNL1        0.0019
      9 C          63.8438   84.9631   14.6440 C.ar    1  UNL1       -0.0038
     10 C          63.0396   84.3159   13.5556 C.ar    1  UNL1       -0.0157
     11 C          62.5726   85.1280   12.3842 C.ar    1  UNL1        0.0257
     12 C          62.9096   86.5873   12.3010 C.ar    1  UNL1        0.1398
     13 F          62.4425   87.3994   11.1295 F       1  UNL1       -0.2042
     14 C          62.7026   82.8567   13.6387 C.3     1  UNL1        0.0509
     15 C          62.1150   81.5723   14.1438 C.3     1  UNL1        0.0100
     16 C          61.8641   82.8534   14.8825 C.3     1  UNL1        0.0100
     17 C          63.4240   82.3531   12.4239 C.2     1  UNL1        0.0534
     18 O          62.7098   81.4786   11.4363 O.co2   1  UNL1       -0.5489
     19 O          64.8595   82.7238   12.1965 O.co2   1  UNL1       -0.5489
     20 O          65.0619   93.0716   13.0568 O.3     1  UNL1       -0.4792
     21 C          68.5159   93.1747    8.8184 C.3     1  UNL1        0.0001
     22 C          67.5660   93.1631    9.9793 C.3     1  UNL1        0.0035
     23 C          67.9369   91.7104    9.9317 C.3     1  UNL1        0.0001
     24 C          66.7450   92.6471   11.1237 C.3     1  UNL1        0.0435
     25 C          65.8830   93.5877   11.9124 C.3     1  UNL1        0.1659
     26 C          65.8419   95.0443   11.5568 C.3     1  UNL1        0.0435
     27 C          66.6629   95.5604   10.4125 C.3     1  UNL1        0.0035
     28 C          66.0070   96.8338   10.8574 C.3     1  UNL1        0.0001
     29 C          67.2561   96.5186    9.4226 C.3     1  UNL1        0.0001
     30 C          67.5250   94.6197    9.6237 C.3     1  UNL1        0.0002
@<TRIPOS>UNITY_ATOM_ATTR
18 1
charge -1
@<TRIPOS>BOND
     1    21    22    1
     2    22    23    1
     3    22    24    1
     4    24    25    1
     5    25    20    1
     6    20     1    1
     7     1     2   ar
     8     2     3   ar
     9     3     4   ar
    10     4     7    1
    11     7     8   ar
    12     8     9   ar
    13     9    10   ar
    14    10    14    1
    15    14    17    1
    16    17    18   ar
    17    17    19   ar
    18    14    15    1
    19    15    16    1
    20    10    11   ar
    21    11    12   ar
    22    12    13    1
    23     4     5   ar
    24     5     6   ar
    25    25    26    1
    26    26    27    1
    27    27    28    1
    28    27    29    1
    29    27    30    1
    30    30    22    1
    31     6     1   ar
    32    12     7   ar
    33    16    14    1
@<TRIPOS>MOLECULE
*****
 30 33 0 0 0
SMALL
GASTEIGER

@<TRIPOS>ATOM
      1 C          64.1538   91.5428   12.3354 C.ar    1  UNL1        0.1384
      2 C          64.6094   90.7700   13.5376 C.ar    1  UNL1        0.0369
      3 C          64.3457   89.2960   13.6258 C.ar    1  UNL1        0.0032
      4 C          63.6263   88.5948   12.5118 C.ar    1  UNL1        0.0024
      5 C          63.1706   89.3676   11.3097 C.ar    1  UNL1        0.0032
      6 C          63.4344   90.8416   11.2215 C.ar    1  UNL1        0.0369
      7 C          63.3625   87.1208   12.6000 C.ar    1  UNL1        0.0275
      8 C          62.4886   86.4529   11.5800 C.ar    1  UNL1        0.0019
      9 C          62.2249   84.9789   11.6682 C.ar    1  UNL1       -0.0038
     10 C          62.8350   84.1728   12.7764 C.ar    1  UNL1       -0.0157
     11 C          63.7088   84.8407   13.7963 C.ar    1  UNL1        0.0257
     12 C          63.9726   86.3147   13.7081 C.ar    1  UNL1        0.1398
     13 F          64.8465   86.9826   14.7281 F       1  UNL1       -0.2042
     14 C          62.5712   82.6988   12.8646 C.3     1  UNL1        0.0509
     15 C          62.4615   81.2597   12.4564 C.3     1  UNL1        0.0100
     16 C          62.9230   82.2871   11.4658 C.3     1  UNL1        0.0100
     17 C          62.1279   82.5986   14.2940 C.2     1  UNL1        0.0534
     18 O          62.2889   81.3075   15.0405 O.co2   1  UNL1       -0.5489
     19 O          61.5235   83.7894   14.9772 O.co2   1  UNL1       -0.5489
     20 O          64.4175   93.0168   12.2472 O.3     1  UNL1       -0.4792
     21 C          67.2171   96.4669    9.0590 C.3     1  UNL1        0.0001
     22 C          66.4595   95.5079    9.9288 C.3     1  UNL1        0.0035
     23 C          65.6862   96.7658   10.1929 C.3     1  UNL1        0.0001
     24 C          65.4334   94.9858   10.8903 C.3     1  UNL1        0.0435
     25 C          65.4437   93.5389   11.2856 C.3     1  UNL1        0.1659
     26 C          66.4801   92.6140   10.7195 C.3     1  UNL1        0.0435
     27 C          67.5062   93.1361    9.7580 C.3     1  UNL1        0.0035
     28 C          67.9232   91.6970    9.8278 C.3     1  UNL1        0.0001
     29 C          68.6771   93.1584    8.8208 C.3     1  UNL1        0.0001
     30 C          67.4959   94.5831    9.3627 C.3     1  UNL1        0.0002
@<TRIPOS>UNITY_ATOM_ATTR
18 1
charge -1
@<TRIPOS>BOND
     1    21    22    1
     2    22    23    1
     3    22    24    1
     4    24    25    1
     5    25    20    1
     6    20     1    1
     7     1     2   ar
     8     2     3   ar
     9     3     4   ar
    10     4     7    1
    11     7     8   ar
    12     8     9   ar
    13     9    10   ar
    14    10    14    1
    15    14    17    1
    16    17    18   ar
    17    17    19   ar
    18    14    15    1
    19    15    16    1
    20    10    11   ar
    21    11    12   ar
    22    12    13    1
    23     4     5   ar
    24     5     6   ar
    25    25    26    1
    26    26    27    1
    27    27    28    1
    28    27    29    1
    29    27    30    1
    30    30    22    1
    31     6     1   ar
    32    12     7   ar
    33    16    14    1
@<TRIPOS>MOLECULE
*****
 30 33 0 0 0
SMALL
GASTEIGER

@<TRIPOS>ATOM
      1 C          62.3758   87.6313   12.3059 C.ar    1  UNL1        0.1384
      2 C          63.3708   88.1564   13.2981 C.ar    1  UNL1        0.0369
      3 C          64.0759   89.4545   13.0378 C.ar    1  UNL1        0.0032
      4 C          63.7861   90.2274   11.7854 C.ar    1  UNL1        0.0024
      5 C          62.7911   89.7023   10.7933 C.ar    1  UNL1        0.0032
      6 C          62.0860   88.4042   11.0535 C.ar    1  UNL1        0.0369
      7 C          64.4912   91.5255   11.5251 C.ar    1  UNL1        0.0275
      8 C          64.2880   92.2414   10.2226 C.ar    1  UNL1        0.0019
      9 C          64.9931   93.5395    9.9624 C.ar    1  UNL1       -0.0038
     10 C          65.9015   94.1217   11.0045 C.ar    1  UNL1       -0.0157
     11 C          66.1047   93.4058   12.3068 C.ar    1  UNL1        0.0257
     12 C          65.3996   92.1077   12.5671 C.ar    1  UNL1        0.1398
     13 F          65.6029   91.3918   13.8695 F       1  UNL1       -0.2042
     14 C          66.6067   95.4198   10.7442 C.3     1  UNL1        0.0509
     15 C          67.0159   96.8554   10.8899 C.3     1  UNL1        0.0100
     16 C          65.9995   96.2669   11.8229 C.3     1  UNL1        0.0100
     17 C          67.4588   95.0235    9.5751 C.2     1  UNL1        0.0534
     18 O          68.5952   94.0632    9.7667 O.co2   1  UNL1       -0.5489
     19 O          67.1747   95.5873    8.2145 O.co2   1  UNL1       -0.5489
     20 O          61.6706   86.3332   12.5662 O.3     1  UNL1       -0.4792
     21 C          63.8841   81.4279   13.5374 C.3     1  UNL1        0.0001
     22 C          63.2818   82.7723   13.2547 C.3     1  UNL1        0.0035
     23 C          62.9587   82.6436   14.7139 C.3     1  UNL1        0.0001
     24 C          62.5674   84.0720   13.4789 C.3     1  UNL1        0.0435
     25 C          62.3851   85.0334   12.3420 C.3     1  UNL1        0.1659
     26 C          62.9174   84.6952   10.9811 C.3     1  UNL1        0.0435
     27 C          63.6319   83.3955   10.7569 C.3     1  UNL1        0.0035
     28 C          63.7068   83.9755    9.3756 C.3     1  UNL1        0.0001
     29 C          64.3724   82.2972   10.0531 C.3     1  UNL1        0.0001
     30 C          63.8141   82.4341   11.8938 C.3     1  UNL1        0.0002
@<TRIPOS>UNITY_ATOM_ATTR
18 1
charge -1
@<TRIPOS>BOND
     1    21    22    1
     2    22    23    1
     3    22    24    1
     4    24    25    1
     5    25    20    1
     6    20     1    1
     7     1     2   ar
     8     2     3   ar
     9     3     4   ar
    10     4     7    1
    11     7     8   ar
    12     8     9   ar
    13     9    10   ar
    14    10    14    1
    15    14    17    1
    16    17    18   ar
    17    17    19   ar
    18    14    15    1
    19    15    16    1
    20    10    11   ar
    21    11    12   ar
    22    12    13    1
    23     4     5   ar
    24     5     6   ar
    25    25    26    1
    26    26    27    1
    27    27    28    1
    28    27    29    1
    29    27    30    1
    30    30    22    1
    31     6     1   ar
    32    12     7   ar
    33    16    14    1
@<TRIPOS>MOLECULE
*****
 30 33 0 0 0
SMALL
GASTEIGER

@<TRIPOS>ATOM
      1 C          63.3774   89.3204   13.0291 C.ar    1  UNL1        0.1384
      2 C          62.6338   88.7701   11.8482 C.ar    1  UNL1        0.0369
      3 C          62.5304   87.2866   11.6519 C.ar    1  UNL1        0.0032
      4 C          63.1706   86.3534   12.6364 C.ar    1  UNL1        0.0024
      5 C          63.9141   86.9036   13.8172 C.ar    1  UNL1        0.0032
      6 C          64.0175   88.3871   14.0135 C.ar    1  UNL1        0.0369
      7 C          63.0672   84.8699   12.4401 C.ar    1  UNL1        0.0275
      8 C          63.5452   84.2474   11.1618 C.ar    1  UNL1        0.0019
      9 C          63.4418   82.7639   10.9655 C.ar    1  UNL1       -0.0038
     10 C          62.8605   81.9029   12.0475 C.ar    1  UNL1       -0.0157
     11 C          62.3825   82.5254   13.3258 C.ar    1  UNL1        0.0257
     12 C          62.4859   84.0089   13.5221 C.ar    1  UNL1        0.1398
     13 F          62.0079   84.6314   14.8004 F       1  UNL1       -0.2042
     14 C          62.7571   80.4194   11.8512 C.3     1  UNL1        0.0509
     15 C          62.7432   79.0861   11.1642 C.3     1  UNL1        0.0100
     16 C          62.9789   80.3365   10.3700 C.3     1  UNL1        0.0100
     17 C          62.4994   79.9870   13.2642 C.2     1  UNL1        0.0534
     18 O          61.1082   79.6306   13.6976 O.co2   1  UNL1       -0.5489
     19 O          63.6327   79.9108   14.2438 O.co2   1  UNL1       -0.5489
     20 O          63.4808   90.8039   13.2254 O.3     1  UNL1       -0.4792
     21 C          68.5648   92.6138   14.1098 C.3     1  UNL1        0.0001
     22 C          67.1702   92.1251   13.8521 C.3     1  UNL1        0.0035
     23 C          67.4080   91.5307   15.2086 C.3     1  UNL1        0.0001
     24 C          65.8582   91.4300   14.0655 C.3     1  UNL1        0.0435
     25 C          64.7928   91.4990   13.0119 C.3     1  UNL1        0.1659
     26 C          65.0393   92.2631   11.7449 C.3     1  UNL1        0.0435
     27 C          66.3512   92.9582   11.5315 C.3     1  UNL1        0.0035
     28 C          65.6578   93.3113   10.2491 C.3     1  UNL1        0.0001
     29 C          67.4224   93.7760   10.8728 C.3     1  UNL1        0.0001
     30 C          67.4167   92.8892   12.5851 C.3     1  UNL1        0.0002
@<TRIPOS>UNITY_ATOM_ATTR
18 1
charge -1
@<TRIPOS>BOND
     1    21    22    1
     2    22    23    1
     3    22    24    1
     4    24    25    1
     5    25    20    1
     6    20     1    1
     7     1     2   ar
     8     2     3   ar
     9     3     4   ar
    10     4     7    1
    11     7     8   ar
    12     8     9   ar
    13     9    10   ar
    14    10    14    1
    15    14    17    1
    16    17    18   ar
    17    17    19   ar
    18    14    15    1
    19    15    16    1
    20    10    11   ar
    21    11    12   ar
    22    12    13    1
    23     4     5   ar
    24     5     6   ar
    25    25    26    1
    26    26    27    1
    27    27    28    1
    28    27    29    1
    29    27    30    1
    30    30    22    1
    31     6     1   ar
    32    12     7   ar
    33    16    14    1
@<TRIPOS>MOLECULE
*****
 30 33 0 0 0
SMALL
GASTEIGER

@<TRIPOS>ATOM
      1 C          63.3321   89.4082   12.9194 C.ar    1  UNL1        0.1384
      2 C          62.5979   88.8326   11.7448 C.ar    1  UNL1        0.0369
      3 C          62.4929   87.3452   11.5815 C.ar    1  UNL1        0.0032
      4 C          63.1220   86.4334   12.5929 C.ar    1  UNL1        0.0024
      5 C          63.8562   87.0090   13.7675 C.ar    1  UNL1        0.0032
      6 C          63.9612   88.4964   13.9307 C.ar    1  UNL1        0.0369
      7 C          63.0169   84.9460   12.4297 C.ar    1  UNL1        0.0275
      8 C          63.2423   84.3214   11.0847 C.ar    1  UNL1        0.0019
      9 C          63.1372   82.8340   10.9214 C.ar    1  UNL1       -0.0038
     10 C          62.8068   81.9713   12.1032 C.ar    1  UNL1       -0.0157
     11 C          62.5815   82.5960   13.4482 C.ar    1  UNL1        0.0257
     12 C          62.6865   84.0833   13.6114 C.ar    1  UNL1        0.1398
     13 F          62.4611   84.7080   14.9565 F       1  UNL1       -0.2042
     14 C          62.7017   80.4839   11.9400 C.3     1  UNL1        0.0509
     15 C          62.7123   79.1333   11.2876 C.3     1  UNL1        0.0100
     16 C          62.9981   80.3611   10.4747 C.3     1  UNL1        0.0100
     17 C          62.3688   80.0901   13.3486 C.2     1  UNL1        0.0534
     18 O          60.9358   79.9845   13.7790 O.co2   1  UNL1       -0.5489
     19 O          63.4689   79.8019   14.3267 O.co2   1  UNL1       -0.5489
     20 O          63.4372   90.8956   13.0827 O.3     1  UNL1       -0.4792
     21 C          67.4424   93.8773   10.8526 C.3     1  UNL1        0.0001
     22 C          66.3536   93.0564   11.4778 C.3     1  UNL1        0.0035
     23 C          65.6782   93.4541   10.1988 C.3     1  UNL1        0.0001
     24 C          65.0304   92.3737   11.6588 C.3     1  UNL1        0.0435
     25 C          64.7606   91.5783   12.9017 C.3     1  UNL1        0.1659
     26 C          65.8140   91.4657   13.9635 C.3     1  UNL1        0.0435
     27 C          67.1373   92.1484   13.7824 C.3     1  UNL1        0.0035
     28 C          67.3532   91.5137   15.1242 C.3     1  UNL1        0.0001
     29 C          68.5355   92.6107   14.0674 C.3     1  UNL1        0.0001
     30 C          67.4071   92.9438   12.5396 C.3     1  UNL1        0.0002
@<TRIPOS>UNITY_ATOM_ATTR
18 1
charge -1
@<TRIPOS>BOND
     1    21    22    1
     2    22    23    1
     3    22    24    1
     4    24    25    1
     5    25    20    1
     6    20     1    1
     7     1     2   ar
     8     2     3   ar
     9     3     4   ar
    10     4     7    1
    11     7     8   ar
    12     8     9   ar
    13     9    10   ar
    14    10    14    1
    15    14    17    1
    16    17    18   ar
    17    17    19   ar
    18    14    15    1
    19    15    16    1
    20    10    11   ar
    21    11    12   ar
    22    12    13    1
    23     4     5   ar
    24     5     6   ar
    25    25    26    1
    26    26    27    1
    27    27    28    1
    28    27    29    1
    29    27    30    1
    30    30    22    1
    31     6     1   ar
    32    12     7   ar
    33    16    14    1
@<TRIPOS>MOLECULE
*****
 30 33 0 0 0
SMALL
GASTEIGER

@<TRIPOS>ATOM
      1 C          62.9239   89.5342   11.9630 C.ar    1  UNL1        0.1384
      2 C          62.2563   88.7926   10.8430 C.ar    1  UNL1        0.0369
      3 C          62.2183   87.2931   10.8540 C.ar    1  UNL1        0.0032
      4 C          62.8480   86.5352   11.9851 C.ar    1  UNL1        0.0024
      5 C          63.5155   87.2768   13.1051 C.ar    1  UNL1        0.0032
      6 C          63.5535   88.7763   13.0940 C.ar    1  UNL1        0.0369
      7 C          62.8100   85.0357   11.9961 C.ar    1  UNL1        0.0275
      8 C          62.4511   84.3038   13.2554 C.ar    1  UNL1        0.0019
      9 C          62.4132   82.8043   13.2664 C.ar    1  UNL1       -0.0038
     10 C          62.7341   82.0368   12.0182 C.ar    1  UNL1       -0.0157
     11 C          63.0929   82.7687   10.7591 C.ar    1  UNL1        0.0257
     12 C          63.1309   84.2682   10.7480 C.ar    1  UNL1        0.1398
     13 F          63.4897   85.0001    9.4888 F       1  UNL1       -0.2042
     14 C          62.6961   80.5373   12.0292 C.3     1  UNL1        0.0509
     15 C          62.7432   79.1225   11.5333 C.3     1  UNL1        0.0100
     16 C          62.9277   80.2601   10.5734 C.3     1  UNL1        0.0100
     17 C          62.4514   80.2936   13.4889 C.2     1  UNL1        0.0534
     18 O          63.6084   80.0612   14.4148 O.co2   1  UNL1       -0.5489
     19 O          61.0497   80.2824   14.0228 O.co2   1  UNL1       -0.5489
     20 O          62.9618   91.0336   11.9520 O.3     1  UNL1       -0.4792
     21 C          67.2949   94.1983   10.8962 C.3     1  UNL1        0.0001
     22 C          66.1126   93.3268   11.2012 C.3     1  UNL1        0.0035
     23 C          65.7600   93.7671    9.8112 C.3     1  UNL1        0.0001
     24 C          64.8080   92.6083   11.0235 C.3     1  UNL1        0.0435
     25 C          64.2665   91.7522   12.1298 C.3     1  UNL1        0.1659
     26 C          65.0297   91.6146   13.4137 C.3     1  UNL1        0.0435
     27 C          66.3343   92.3331   13.5914 C.3     1  UNL1        0.0035
     28 C          66.2339   91.6434   14.9196 C.3     1  UNL1        0.0001
     29 C          67.6041   92.8121   14.2304 C.3     1  UNL1        0.0001
     30 C          66.8758   93.1892   12.4852 C.3     1  UNL1        0.0002
@<TRIPOS>UNITY_ATOM_ATTR
18 1
charge -1
@<TRIPOS>BOND
     1    21    22    1
     2    22    23    1
     3    22    24    1
     4    24    25    1
     5    25    20    1
     6    20     1    1
     7     1     2   ar
     8     2     3   ar
     9     3     4   ar
    10     4     7    1
    11     7     8   ar
    12     8     9   ar
    13     9    10   ar
    14    10    14    1
    15    14    17    1
    16    17    18   ar
    17    17    19   ar
    18    14    15    1
    19    15    16    1
    20    10    11   ar
    21    11    12   ar
    22    12    13    1
    23     4     5   ar
    24     5     6   ar
    25    25    26    1
    26    26    27    1
    27    27    28    1
    28    27    29    1
    29    27    30    1
    30    30    22    1
    31     6     1   ar
    32    12     7   ar
    33    16    14    1
@<TRIPOS>MOLECULE
*****
 30 33 0 0 0
SMALL
GASTEIGER

@<TRIPOS>ATOM
      1 C          63.2446   89.4455   12.7753 C.ar    1  UNL1        0.1384
      2 C          63.8995   88.5599   13.7935 C.ar    1  UNL1        0.0369
      3 C          63.8023   87.0687   13.6639 C.ar    1  UNL1        0.0032
      4 C          63.0501   86.4631   12.5161 C.ar    1  UNL1        0.0024
      5 C          62.3951   87.3487   11.4979 C.ar    1  UNL1        0.0032
      6 C          62.4924   88.8399   11.6275 C.ar    1  UNL1        0.0369
      7 C          62.9528   84.9719   12.3865 C.ar    1  UNL1        0.0275
      8 C          62.7962   84.1211   13.6120 C.ar    1  UNL1        0.0019
      9 C          62.6990   82.6299   13.4824 C.ar    1  UNL1       -0.0038
     10 C          62.7583   81.9894   12.1272 C.ar    1  UNL1       -0.0157
     11 C          62.9149   82.8401   10.9018 C.ar    1  UNL1        0.0257
     12 C          63.0121   84.3314   11.0314 C.ar    1  UNL1        0.1398
     13 F          63.1687   85.1821    9.8059 F       1  UNL1       -0.2042
     14 C          62.6611   80.4982   11.9976 C.3     1  UNL1        0.0509
     15 C          62.6936   79.1320   11.3793 C.3     1  UNL1        0.0100
     16 C          63.0009   80.3402   10.5452 C.3     1  UNL1        0.0100
     17 C          62.2874   80.1382   13.4050 C.2     1  UNL1        0.0534
     18 O          63.3526   79.7544   14.3890 O.co2   1  UNL1       -0.5489
     19 O          60.8487   80.1620   13.8286 O.co2   1  UNL1       -0.5489
     20 O          63.3418   90.9367   12.9049 O.3     1  UNL1       -0.4792
     21 C          68.3741   92.6831   14.1422 C.3     1  UNL1        0.0001
     22 C          66.9949   92.2118   13.7877 C.3     1  UNL1        0.0035
     23 C          67.1295   91.6164   15.1579 C.3     1  UNL1        0.0001
     24 C          65.6624   91.5338   13.9091 C.3     1  UNL1        0.0435
     25 C          64.6743   91.6148   12.7835 C.3     1  UNL1        0.1659
     26 C          65.0187   92.3739   11.5364 C.3     1  UNL1        0.0435
     27 C          66.3512   93.0519   11.4150 C.3     1  UNL1        0.0035
     28 C          65.7539   93.4118   10.0870 C.3     1  UNL1        0.0001
     29 C          67.4762   93.8549   10.8324 C.3     1  UNL1        0.0001
     30 C          67.3392   92.9709   12.5407 C.3     1  UNL1        0.0002
@<TRIPOS>UNITY_ATOM_ATTR
18 1
charge -1
@<TRIPOS>BOND
     1    21    22    1
     2    22    23    1
     3    22    24    1
     4    24    25    1
     5    25    20    1
     6    20     1    1
     7     1     2   ar
     8     2     3   ar
     9     3     4   ar
    10     4     7    1
    11     7     8   ar
    12     8     9   ar
    13     9    10   ar
    14    10    14    1
    15    14    17    1
    16    17    18   ar
    17    17    19   ar
    18    14    15    1
    19    15    16    1
    20    10    11   ar
    21    11    12   ar
    22    12    13    1
    23     4     5   ar
    24     5     6   ar
    25    25    26    1
    26    26    27    1
    27    27    28    1
    28    27    29    1
    29    27    30    1
    30    30    22    1
    31     6     1   ar
    32    12     7   ar
    33    16    14    1
@<TRIPOS>MOLECULE
*****
 30 33 0 0 0
SMALL
GASTEIGER

@<TRIPOS>ATOM
      1 C          63.8825   89.3011   14.4537 C.ar    1  UNL1        0.1384
      2 C          63.4824   88.9589   13.0491 C.ar    1  UNL1        0.0369
      3 C          63.2973   87.5248   12.6503 C.ar    1  UNL1        0.0032
      4 C          63.5125   86.4329   13.6560 C.ar    1  UNL1        0.0024
      5 C          63.9126   86.7751   15.0606 C.ar    1  UNL1        0.0032
      6 C          64.0976   88.2092   15.4594 C.ar    1  UNL1        0.0369
      7 C          63.3274   84.9988   13.2572 C.ar    1  UNL1        0.0275
      8 C          62.6545   84.6620   11.9595 C.ar    1  UNL1        0.0019
      9 C          62.4695   83.2279   11.5607 C.ar    1  UNL1       -0.0038
     10 C          62.9574   82.1306   12.4595 C.ar    1  UNL1       -0.0157
     11 C          63.6303   82.4673   13.7571 C.ar    1  UNL1        0.0257
     12 C          63.8153   83.9014   14.1559 C.ar    1  UNL1        0.1398
     13 F          64.4882   84.2382   15.4536 F       1  UNL1       -0.2042
     14 C          62.7724   80.6964   12.0606 C.3     1  UNL1        0.0509
     15 C          62.7703   79.4577   11.2149 C.3     1  UNL1        0.0100
     16 C          63.2349   80.7607   10.6352 C.3     1  UNL1        0.0100
     17 C          62.2456   80.1340   13.3476 C.2     1  UNL1        0.0534
     18 O          63.1160   79.2514   14.1922 O.co2   1  UNL1       -0.5489
     19 O          60.8485   80.4541   13.7899 O.co2   1  UNL1       -0.5489
     20 O          64.0675   90.7352   14.8526 O.3     1  UNL1       -0.4792
     21 C          68.9603   93.1725   14.6925 C.3     1  UNL1        0.0001
     22 C          67.6153   92.5089   14.7204 C.3     1  UNL1        0.0035
     23 C          68.0914   92.1912   16.1070 C.3     1  UNL1        0.0001
     24 C          66.4357   91.7350   15.2298 C.3     1  UNL1        0.0435
     25 C          65.2472   91.5092   14.3431 C.3     1  UNL1        0.1659
     26 C          65.2382   92.0573   12.9469 C.3     1  UNL1        0.0435
     27 C          66.4178   92.8313   12.4375 C.3     1  UNL1        0.0035
     28 C          65.5321   92.8802   11.2278 C.3     1  UNL1        0.0001
     29 C          67.2898   93.6222   11.5079 C.3     1  UNL1        0.0001
     30 C          67.6063   93.0570   13.3242 C.3     1  UNL1        0.0002
@<TRIPOS>UNITY_ATOM_ATTR
18 1
charge -1
@<TRIPOS>BOND
     1    21    22    1
     2    22    23    1
     3    22    24    1
     4    24    25    1
     5    25    20    1
     6    20     1    1
     7     1     2   ar
     8     2     3   ar
     9     3     4   ar
    10     4     7    1
    11     7     8   ar
    12     8     9   ar
    13     9    10   ar
    14    10    14    1
    15    14    17    1
    16    17    18   ar
    17    17    19   ar
    18    14    15    1
    19    15    16    1
    20    10    11   ar
    21    11    12   ar
    22    12    13    1
    23     4     5   ar
    24     5     6   ar
    25    25    26    1
    26    26    27    1
    27    27    28    1
    28    27    29    1
    29    27    30    1
    30    30    22    1
    31     6     1   ar
    32    12     7   ar
    33    16    14    1
