@<TRIPOS>MOLECULE
*****
 30 33 0 0 0
SMALL
GASTEIGER

@<TRIPOS>ATOM
      1 C          63.3996   89.9753   15.9783 C.2     1  UNL1        0.2707
      2 O          63.5098   91.4026   16.4260 O.2     1  UNL1       -0.2707
      3 N          63.8994   89.5738   14.6223 N.am    1  UNL1       -0.2809
      4 H          63.8270   88.6369   14.3284 H       1  UNL1        0.1550
      5 C          64.5095   90.5997   13.7139 C.ar    1  UNL1        0.0504
      6 C          65.7799   91.2918   14.1103 C.ar    1  UNL1        0.0147
      7 C          66.3900   92.3177   13.2019 C.ar    1  UNL1        0.0013
      8 C          65.7298   92.6516   11.8970 C.ar    1  UNL1        0.0001
      9 C          64.4594   91.9595   11.5006 C.ar    1  UNL1        0.0013
     10 C          63.8492   90.9335   12.4090 C.ar    1  UNL1        0.0147
     11 C          66.3399   93.6775   10.9886 C.ar    1  UNL1        0.0000
     12 C          67.1848   93.2436    9.8276 C.ar    1  UNL1        0.0000
     13 C          67.7949   94.2695    8.9192 C.ar    1  UNL1        0.0000
     14 C          67.5601   95.7293    9.1717 C.ar    1  UNL1        0.0000
     15 C          66.7152   96.1632   10.3327 C.ar    1  UNL1        0.0000
     16 C          66.1051   95.1373   11.2412 C.ar    1  UNL1        0.0000
     17 C          62.7894   88.9493   16.8868 C.3     1  UNL1        0.2897
     18 O          63.5308   87.6814   17.1912 O.3     1  UNL1       -0.4656
     19 C          63.1763   84.1485   14.4266 C.ar    1  UNL1        0.0653
     20 C          62.2081   84.3138   15.5603 C.ar    1  UNL1        0.0207
     21 C          62.3263   85.4914   16.4818 C.ar    1  UNL1        0.0384
     22 C          63.4126   86.5037   16.2697 C.ar    1  UNL1        0.1394
     23 C          64.3808   86.3385   15.1360 C.ar    1  UNL1        0.0384
     24 C          64.2626   85.1609   14.2145 C.ar    1  UNL1        0.0207
     25 C          62.8793   84.2761   11.1793 C.3     1  UNL1        0.0722
     26 C          62.9216   83.0295   12.0125 C.ar    1  UNL1        0.1247
     27 N          62.8349   81.6228   11.4993 N.ar    1  UNL1       -0.2290
     28 C          62.9178   80.6946   12.6747 C.ar    1  UNL1        0.1192
     29 C          63.0557   81.5278   13.9144 C.ar    1  UNL1        0.1019
     30 N          63.0581   82.9709   13.5051 N.ar    1  UNL1       -0.2923
@<TRIPOS>BOND
     1    25    26    1
     2    26    27   ar
     3    27    28   ar
     4    28    29   ar
     5    29    30   ar
     6    30    19    1
     7    19    20   ar
     8    20    21   ar
     9    21    22   ar
    10    22    18    1
    11    18    17    1
    12    17     1    1
    13     1     2    2
    14     1     3   am
    15     3     5    1
    16     5     6   ar
    17     6     7   ar
    18     7     8   ar
    19     8    11    1
    20    11    12   ar
    21    12    13   ar
    22    13    14   ar
    23    14    15   ar
    24    15    16   ar
    25     8     9   ar
    26     9    10   ar
    27    22    23   ar
    28    23    24   ar
    29    30    26   ar
    30    24    19   ar
    31    10     5   ar
    32    16    11   ar
    33     3     4    1
@<TRIPOS>MOLECULE
*****
 30 33 0 0 0
SMALL
GASTEIGER

@<TRIPOS>ATOM
      1 C          63.6762   89.7299   15.4397 C.2     1  UNL1        0.2707
      2 O          62.4116   89.1684   16.0188 O.2     1  UNL1       -0.2707
      3 N          64.5545   88.8694   14.5807 N.am    1  UNL1       -0.2809
      4 H          65.3845   89.2379   14.2006 H       1  UNL1        0.1550
      5 C          64.1682   87.4473   14.3008 C.ar    1  UNL1        0.0504
      6 C          64.4609   86.3778   15.3111 C.ar    1  UNL1        0.0147
      7 C          64.0746   84.9557   15.0312 C.ar    1  UNL1        0.0013
      8 C          63.3955   84.6030   13.7410 C.ar    1  UNL1        0.0001
      9 C          63.1028   85.6724   12.7308 C.ar    1  UNL1        0.0013
     10 C          63.4891   87.0946   13.0106 C.ar    1  UNL1        0.0147
     11 C          63.0092   83.1810   13.4611 C.ar    1  UNL1        0.0000
     12 C          63.4545   82.5189   12.1908 C.ar    1  UNL1        0.0000
     13 C          63.0681   81.0968   11.9109 C.ar    1  UNL1        0.0000
     14 C          62.2366   80.3367   12.9013 C.ar    1  UNL1        0.0000
     15 C          61.7913   80.9987   14.1715 C.ar    1  UNL1        0.0000
     16 C          62.1776   82.4209   14.4514 C.ar    1  UNL1        0.0000
     17 C          64.0625   91.1521   15.7197 C.3     1  UNL1        0.2897
     18 O          65.4421   91.6348   15.3825 O.3     1  UNL1       -0.4656
     19 C          66.1500   93.9578   11.5940 C.ar    1  UNL1        0.0653
     20 C          66.6832   94.4705   12.8989 C.ar    1  UNL1        0.0207
     21 C          66.4472   93.6962   14.1617 C.ar    1  UNL1        0.0384
     22 C          65.6780   92.4091   14.1196 C.ar    1  UNL1        0.1394
     23 C          65.1448   91.8963   12.8148 C.ar    1  UNL1        0.0384
     24 C          65.3808   92.6707   11.5520 C.ar    1  UNL1        0.0207
     25 C          68.2606   93.1765    9.2308 C.3     1  UNL1        0.0722
     26 C          67.3560   94.3730    9.2449 C.ar    1  UNL1        0.1247
     27 N          67.2628   95.4204    8.1753 N.ar    1  UNL1       -0.2290
     28 C          66.2350   96.4269    8.6004 C.ar    1  UNL1        0.1192
     29 C          65.6931   96.0015    9.9328 C.ar    1  UNL1        0.1019
     30 N          66.3859   94.7321   10.3311 N.ar    1  UNL1       -0.2923
@<TRIPOS>BOND
     1    25    26    1
     2    26    27   ar
     3    27    28   ar
     4    28    29   ar
     5    29    30   ar
     6    30    19    1
     7    19    20   ar
     8    20    21   ar
     9    21    22   ar
    10    22    18    1
    11    18    17    1
    12    17     1    1
    13     1     2    2
    14     1     3   am
    15     3     5    1
    16     5     6   ar
    17     6     7   ar
    18     7     8   ar
    19     8    11    1
    20    11    12   ar
    21    12    13   ar
    22    13    14   ar
    23    14    15   ar
    24    15    16   ar
    25     8     9   ar
    26     9    10   ar
    27    22    23   ar
    28    23    24   ar
    29    30    26   ar
    30    24    19   ar
    31    10     5   ar
    32    16    11   ar
    33     3     4    1
@<TRIPOS>MOLECULE
*****
 30 33 0 0 0
SMALL
GASTEIGER

@<TRIPOS>ATOM
      1 C          63.6697   89.0360   15.5645 C.2     1  UNL1        0.2707
      2 O          63.8390   88.2667   14.2880 O.2     1  UNL1       -0.2707
      3 N          64.1497   90.4542   15.6547 N.am    1  UNL1       -0.2809
      4 H          64.0386   90.9592   16.4925 H       1  UNL1        0.1550
      5 C          64.7989   91.1031   14.4683 C.ar    1  UNL1        0.0504
      6 C          64.0286   91.2756   13.1928 C.ar    1  UNL1        0.0147
      7 C          64.6778   91.9244   12.0064 C.ar    1  UNL1        0.0013
      8 C          66.0973   92.4010   12.0956 C.ar    1  UNL1        0.0001
      9 C          66.8676   92.2286   13.3711 C.ar    1  UNL1        0.0013
     10 C          66.2184   91.5796   14.5575 C.ar    1  UNL1        0.0147
     11 C          66.7466   93.0498   10.9093 C.ar    1  UNL1        0.0000
     12 C          67.7426   92.2858   10.0881 C.ar    1  UNL1        0.0000
     13 C          68.3919   92.9347    8.9018 C.ar    1  UNL1        0.0000
     14 C          68.0451   94.3476    8.5366 C.ar    1  UNL1        0.0000
     15 C          67.0490   95.1116    9.3576 C.ar    1  UNL1        0.0000
     16 C          66.3998   94.4628   10.5440 C.ar    1  UNL1        0.0000
     17 C          63.0205   88.3870   16.7508 C.3     1  UNL1        0.2897
     18 O          63.4653   87.0262   17.1982 O.3     1  UNL1       -0.4656
     19 C          63.1019   83.5114   14.4118 C.ar    1  UNL1        0.0653
     20 C          61.9135   83.9637   15.2075 C.ar    1  UNL1        0.0207
     21 C          62.0347   85.1352   16.1362 C.ar    1  UNL1        0.0384
     22 C          63.3442   85.8546   16.2693 C.ar    1  UNL1        0.1394
     23 C          64.5326   85.4023   15.4736 C.ar    1  UNL1        0.0384
     24 C          64.4114   84.2307   14.5448 C.ar    1  UNL1        0.0207
     25 C          63.3431   83.6094   11.1588 C.3     1  UNL1        0.0722
     26 C          63.0916   82.3848   11.9877 C.ar    1  UNL1        0.1247
     27 N          62.9069   80.9903   11.4670 N.ar    1  UNL1       -0.2290
     28 C          62.6818   80.0833   12.6404 C.ar    1  UNL1        0.1192
     29 C          62.7275   80.9174   13.8863 C.ar    1  UNL1        0.1019
     30 N          62.9808   82.3398   13.4829 N.ar    1  UNL1       -0.2923
@<TRIPOS>BOND
     1    25    26    1
     2    26    27   ar
     3    27    28   ar
     4    28    29   ar
     5    29    30   ar
     6    30    19    1
     7    19    20   ar
     8    20    21   ar
     9    21    22   ar
    10    22    18    1
    11    18    17    1
    12    17     1    1
    13     1     2    2
    14     1     3   am
    15     3     5    1
    16     5     6   ar
    17     6     7   ar
    18     7     8   ar
    19     8    11    1
    20    11    12   ar
    21    12    13   ar
    22    13    14   ar
    23    14    15   ar
    24    15    16   ar
    25     8     9   ar
    26     9    10   ar
    27    22    23   ar
    28    23    24   ar
    29    30    26   ar
    30    24    19   ar
    31    10     5   ar
    32    16    11   ar
    33     3     4    1
@<TRIPOS>MOLECULE
*****
 30 33 0 0 0
SMALL
GASTEIGER

@<TRIPOS>ATOM
      1 C          63.7207   88.7350   15.7901 C.2     1  UNL1        0.2707
      2 O          64.6009   87.9885   14.8319 O.2     1  UNL1       -0.2707
      3 N          63.5560   90.2198   15.6561 N.am    1  UNL1       -0.2809
      4 H          62.9783   90.7098   16.2850 H       1  UNL1        0.1550
      5 C          64.2715   90.9582   14.5640 C.ar    1  UNL1        0.0504
      6 C          65.5859   91.6241   14.8451 C.ar    1  UNL1        0.0147
      7 C          66.3014   92.3625   13.7530 C.ar    1  UNL1        0.0013
      8 C          65.7025   92.4350   12.3796 C.ar    1  UNL1        0.0001
      9 C          64.3882   91.7692   12.0984 C.ar    1  UNL1        0.0013
     10 C          63.6726   91.0307   13.1906 C.ar    1  UNL1        0.0147
     11 C          66.4180   93.1734   11.2875 C.ar    1  UNL1        0.0000
     12 C          66.1915   94.6449   11.1038 C.ar    1  UNL1        0.0000
     13 C          66.9070   95.3832   10.0117 C.ar    1  UNL1        0.0000
     14 C          67.8490   94.6503    9.1031 C.ar    1  UNL1        0.0000
     15 C          68.0754   93.1789    9.2867 C.ar    1  UNL1        0.0000
     16 C          67.3599   92.4404   10.3789 C.ar    1  UNL1        0.0000
     17 C          63.0052   87.9965   16.8823 C.3     1  UNL1        0.2897
     18 O          63.3371   86.5600   17.1585 O.3     1  UNL1       -0.4656
     19 C          63.2858   83.5546   13.8097 C.ar    1  UNL1        0.0653
     20 C          64.5721   84.2199   14.2007 C.ar    1  UNL1        0.0207
     21 C          64.5891   85.2216   15.3170 C.ar    1  UNL1        0.0384
     22 C          63.3200   85.5582   16.0422 C.ar    1  UNL1        0.1394
     23 C          62.0337   84.8930   15.6512 C.ar    1  UNL1        0.0384
     24 C          62.0166   83.8912   14.5349 C.ar    1  UNL1        0.0207
     25 C          62.0725   80.5292   13.9658 C.3     1  UNL1        0.0722
     26 C          62.7110   81.1622   12.7651 C.ar    1  UNL1        0.1247
     27 N          62.9039   80.5157   11.4254 N.ar    1  UNL1       -0.2290
     28 C          63.5808   81.5068   10.5256 C.ar    1  UNL1        0.1192
     29 C          63.8063   82.7657   11.3093 C.ar    1  UNL1        0.1019
     30 N          63.2687   82.5528   12.6933 N.ar    1  UNL1       -0.2923
@<TRIPOS>BOND
     1    25    26    1
     2    26    27   ar
     3    27    28   ar
     4    28    29   ar
     5    29    30   ar
     6    30    19    1
     7    19    20   ar
     8    20    21   ar
     9    21    22   ar
    10    22    18    1
    11    18    17    1
    12    17     1    1
    13     1     2    2
    14     1     3   am
    15     3     5    1
    16     5     6   ar
    17     6     7   ar
    18     7     8   ar
    19     8    11    1
    20    11    12   ar
    21    12    13   ar
    22    13    14   ar
    23    14    15   ar
    24    15    16   ar
    25     8     9   ar
    26     9    10   ar
    27    22    23   ar
    28    23    24   ar
    29    30    26   ar
    30    24    19   ar
    31    10     5   ar
    32    16    11   ar
    33     3     4    1
@<TRIPOS>MOLECULE
*****
 30 33 0 0 0
SMALL
GASTEIGER

@<TRIPOS>ATOM
      1 C          60.8408   89.9979   10.0338 C.2     1  UNL1        0.2707
      2 O          60.2858   90.5870   11.2967 O.2     1  UNL1       -0.2707
      3 N          62.3251   89.9057    9.8383 N.am    1  UNL1       -0.2809
      4 H          62.6894   89.5191    9.0094 H       1  UNL1        0.1550
      5 C          63.2544   90.4027   10.9057 C.ar    1  UNL1        0.0504
      6 C          63.3326   89.6902   12.2234 C.ar    1  UNL1        0.0147
      7 C          64.2619   90.1871   13.2908 C.ar    1  UNL1        0.0013
      8 C          65.1131   91.3967   13.0406 C.ar    1  UNL1        0.0001
      9 C          65.0349   92.1092   11.7230 C.ar    1  UNL1        0.0013
     10 C          64.1056   91.6123   10.6555 C.ar    1  UNL1        0.0147
     11 C          66.0424   91.8937   14.1079 C.ar    1  UNL1        0.0000
     12 C          67.4917   92.1201   13.7946 C.ar    1  UNL1        0.0000
     13 C          68.4210   92.6171   14.8620 C.ar    1  UNL1        0.0000
     14 C          67.9010   92.8877   16.2427 C.ar    1  UNL1        0.0000
     15 C          66.4518   92.6612   16.5561 C.ar    1  UNL1        0.0000
     16 C          65.5224   92.1642   15.4887 C.ar    1  UNL1        0.0000
     17 C          59.9114   89.5009    8.9664 C.3     1  UNL1        0.2897
     18 O          60.0468   88.1004    8.4466 O.3     1  UNL1       -0.4656
     19 C          62.4687   85.0756   10.7347 C.ar    1  UNL1        0.0653
     20 C          61.4351   85.8998   11.4433 C.ar    1  UNL1        0.0207
     21 C          60.6278   86.9081   10.6807 C.ar    1  UNL1        0.0384
     22 C          60.8542   87.0921    9.2093 C.ar    1  UNL1        0.1394
     23 C          61.8878   86.2678    8.5006 C.ar    1  UNL1        0.0384
     24 C          62.6950   85.2596    9.2633 C.ar    1  UNL1        0.0207
     25 C          63.7703   85.5042   13.6964 C.3     1  UNL1        0.0722
     26 C          63.8743   84.2643   12.8587 C.ar    1  UNL1        0.1247
     27 N          64.5948   83.0038   13.2352 N.ar    1  UNL1       -0.2290
     28 C          64.4419   82.0276   12.1065 C.ar    1  UNL1        0.1192
     29 C          63.6269   82.6849   11.0325 C.ar    1  UNL1        0.1019
     30 N          63.2761   84.0673   11.4973 N.ar    1  UNL1       -0.2923
@<TRIPOS>BOND
     1    25    26    1
     2    26    27   ar
     3    27    28   ar
     4    28    29   ar
     5    29    30   ar
     6    30    19    1
     7    19    20   ar
     8    20    21   ar
     9    21    22   ar
    10    22    18    1
    11    18    17    1
    12    17     1    1
    13     1     2    2
    14     1     3   am
    15     3     5    1
    16     5     6   ar
    17     6     7   ar
    18     7     8   ar
    19     8    11    1
    20    11    12   ar
    21    12    13   ar
    22    13    14   ar
    23    14    15   ar
    24    15    16   ar
    25     8     9   ar
    26     9    10   ar
    27    22    23   ar
    28    23    24   ar
    29    30    26   ar
    30    24    19   ar
    31    10     5   ar
    32    16    11   ar
    33     3     4    1
@<TRIPOS>MOLECULE
*****
 30 33 0 0 0
SMALL
GASTEIGER

@<TRIPOS>ATOM
      1 C          63.8629   87.8587   14.8464 C.2     1  UNL1        0.2707
      2 O          63.8104   86.7936   15.9014 O.2     1  UNL1       -0.2707
      3 N          63.7376   87.4870   13.3986 N.am    1  UNL1       -0.2809
      4 H          63.7720   88.1860   12.7062 H       1  UNL1        0.1550
      5 C          63.5599   86.0504   13.0058 C.ar    1  UNL1        0.0504
      6 C          62.5970   85.6845   11.9153 C.ar    1  UNL1        0.0147
      7 C          62.4193   84.2479   11.5225 C.ar    1  UNL1        0.0013
      8 C          63.2045   83.1770   12.2201 C.ar    1  UNL1        0.0001
      9 C          64.1673   83.5427   13.3105 C.ar    1  UNL1        0.0013
     10 C          64.3451   84.9794   13.7034 C.ar    1  UNL1        0.0147
     11 C          63.0268   81.7403   11.8273 C.ar    1  UNL1        0.0000
     12 C          62.6941   80.7135   12.8690 C.ar    1  UNL1        0.0000
     13 C          62.5164   79.2768   12.4762 C.ar    1  UNL1        0.0000
     14 C          62.6713   78.8669   11.0417 C.ar    1  UNL1        0.0000
     15 C          63.0040   79.8935    9.9999 C.ar    1  UNL1        0.0000
     16 C          63.1817   81.3303   10.3927 C.ar    1  UNL1        0.0000
     17 C          64.0406   89.2954   15.2393 C.3     1  UNL1        0.2897
     18 O          63.3535   90.3768   14.4592 O.3     1  UNL1       -0.4656
     19 C          65.6976   92.8945   11.5581 C.ar    1  UNL1        0.0653
     20 C          66.0796   92.8694   13.0084 C.ar    1  UNL1        0.0207
     21 C          65.2983   92.0302   13.9754 C.ar    1  UNL1        0.0384
     22 C          64.1349   91.2160   13.4921 C.ar    1  UNL1        0.1394
     23 C          63.7528   91.2410   12.0418 C.ar    1  UNL1        0.0384
     24 C          64.5342   92.0803   11.0748 C.ar    1  UNL1        0.0207
     25 C          68.2116   91.8855    9.7384 C.3     1  UNL1        0.0722
     26 C          67.6345   93.2699    9.7546 C.ar    1  UNL1        0.1247
     27 N          68.1116   94.4337    8.9373 N.ar    1  UNL1       -0.2290
     28 C          67.2510   95.6167    9.2686 C.ar    1  UNL1        0.1192
     29 C          66.2419   95.1841   10.2906 C.ar    1  UNL1        0.1019
     30 N          66.4790   93.7337   10.5910 N.ar    1  UNL1       -0.2923
@<TRIPOS>BOND
     1    25    26    1
     2    26    27   ar
     3    27    28   ar
     4    28    29   ar
     5    29    30   ar
     6    30    19    1
     7    19    20   ar
     8    20    21   ar
     9    21    22   ar
    10    22    18    1
    11    18    17    1
    12    17     1    1
    13     1     2    2
    14     1     3   am
    15     3     5    1
    16     5     6   ar
    17     6     7   ar
    18     7     8   ar
    19     8    11    1
    20    11    12   ar
    21    12    13   ar
    22    13    14   ar
    23    14    15   ar
    24    15    16   ar
    25     8     9   ar
    26     9    10   ar
    27    22    23   ar
    28    23    24   ar
    29    30    26   ar
    30    24    19   ar
    31    10     5   ar
    32    16    11   ar
    33     3     4    1
@<TRIPOS>MOLECULE
*****
 30 33 0 0 0
SMALL
GASTEIGER

@<TRIPOS>ATOM
      1 C          60.9500   90.1363   10.1370 C.2     1  UNL1        0.2707
      2 O          60.4366   90.5364   11.4884 O.2     1  UNL1       -0.2707
      3 N          62.4197   90.2006    9.8439 N.am    1  UNL1       -0.2809
      4 H          62.7567   89.9380    8.9569 H       1  UNL1        0.1550
      5 C          63.3759   90.6651   10.9021 C.ar    1  UNL1        0.0504
      6 C          64.2959   91.8177   10.6279 C.ar    1  UNL1        0.0147
      7 C          65.2521   92.2822   11.6862 C.ar    1  UNL1        0.0013
      8 C          65.2883   91.5942   13.0186 C.ar    1  UNL1        0.0001
      9 C          64.3683   90.4417   13.2927 C.ar    1  UNL1        0.0013
     10 C          63.4121   89.9771   12.2345 C.ar    1  UNL1        0.0147
     11 C          66.2445   92.0587   14.0768 C.ar    1  UNL1        0.0000
     12 C          65.7457   92.3571   15.4597 C.ar    1  UNL1        0.0000
     13 C          66.7019   92.8216   16.5179 C.ar    1  UNL1        0.0000
     14 C          68.1569   92.9878   16.1933 C.ar    1  UNL1        0.0000
     15 C          68.6557   92.6894   14.8106 C.ar    1  UNL1        0.0000
     16 C          67.6995   92.2249   13.7523 C.ar    1  UNL1        0.0000
     17 C          59.9938   89.6717    9.0788 C.3     1  UNL1        0.2897
     18 O          59.9763   88.2303    8.6642 O.3     1  UNL1       -0.4656
     19 C          62.2992   85.1823   11.0229 C.ar    1  UNL1        0.0653
     20 C          62.4569   85.2569    9.5331 C.ar    1  UNL1        0.0207
     21 C          61.6826   86.2728    8.7469 C.ar    1  UNL1        0.0384
     22 C          60.7506   87.2143    9.4505 C.ar    1  UNL1        0.1394
     23 C          60.5929   87.1397   10.9403 C.ar    1  UNL1        0.0384
     24 C          61.3672   86.1237   11.7265 C.ar    1  UNL1        0.0207
     25 C          64.2920   82.9125    9.7872 C.3     1  UNL1        0.0722
     26 C          63.9895   83.1230   11.2412 C.ar    1  UNL1        0.1247
     27 N          64.5499   82.3271   12.3825 N.ar    1  UNL1       -0.2290
     28 C          63.9803   82.8785   13.6559 C.ar    1  UNL1        0.1192
     29 C          63.0679   84.0152   13.3016 C.ar    1  UNL1        0.1019
     30 N          63.0736   84.1663   11.8092 N.ar    1  UNL1       -0.2923
@<TRIPOS>BOND
     1    25    26    1
     2    26    27   ar
     3    27    28   ar
     4    28    29   ar
     5    29    30   ar
     6    30    19    1
     7    19    20   ar
     8    20    21   ar
     9    21    22   ar
    10    22    18    1
    11    18    17    1
    12    17     1    1
    13     1     2    2
    14     1     3   am
    15     3     5    1
    16     5     6   ar
    17     6     7   ar
    18     7     8   ar
    19     8    11    1
    20    11    12   ar
    21    12    13   ar
    22    13    14   ar
    23    14    15   ar
    24    15    16   ar
    25     8     9   ar
    26     9    10   ar
    27    22    23   ar
    28    23    24   ar
    29    30    26   ar
    30    24    19   ar
    31    10     5   ar
    32    16    11   ar
    33     3     4    1
@<TRIPOS>MOLECULE
*****
 30 33 0 0 0
SMALL
GASTEIGER

@<TRIPOS>ATOM
      1 C          63.1219   89.5726   14.9152 C.2     1  UNL1        0.2707
      2 O          61.7477   89.9309   14.4322 O.2     1  UNL1       -0.2707
      3 N          63.9629   88.6065   14.1347 N.am    1  UNL1       -0.2809
      4 H          64.8648   88.3713   14.4517 H       1  UNL1        0.1550
      5 C          63.4299   87.9988   12.8712 C.ar    1  UNL1        0.0504
      6 C          63.2836   86.5101   12.7585 C.ar    1  UNL1        0.0147
      7 C          62.7505   85.9024   11.4950 C.ar    1  UNL1        0.0013
      8 C          62.3637   86.7833   10.3442 C.ar    1  UNL1        0.0001
      9 C          62.5099   88.2718   10.4568 C.ar    1  UNL1        0.0013
     10 C          63.0430   88.8796   11.7204 C.ar    1  UNL1        0.0147
     11 C          61.8306   86.1755    9.0807 C.ar    1  UNL1        0.0000
     12 C          62.7317   85.3580    8.2033 C.ar    1  UNL1        0.0000
     13 C          62.1986   84.7503    6.9398 C.ar    1  UNL1        0.0000
     14 C          60.7645   84.9600    6.5536 C.ar    1  UNL1        0.0000
     15 C          59.8634   85.7775    7.4309 C.ar    1  UNL1        0.0000
     16 C          60.3964   86.3853    8.6945 C.ar    1  UNL1        0.0000
     17 C          63.6549   90.1803   16.1788 C.3     1  UNL1        0.2897
     18 O          64.5768   91.3617   16.1120 O.3     1  UNL1       -0.4656
     19 C          66.5709   92.4427   12.2255 C.ar    1  UNL1        0.0653
     20 C          65.0860   92.2367   12.2746 C.ar    1  UNL1        0.0207
     21 C          64.4213   91.8764   13.5701 C.ar    1  UNL1        0.0384
     22 C          65.2416   91.7220   14.8164 C.ar    1  UNL1        0.1394
     23 C          66.7265   91.9280   14.7673 C.ar    1  UNL1        0.0384
     24 C          67.3912   92.2883   13.4718 C.ar    1  UNL1        0.0207
     25 C          66.2954   95.2900   10.6549 C.3     1  UNL1        0.0722
     26 C          67.1091   94.1117   10.2081 C.ar    1  UNL1        0.1247
     27 N          67.9389   94.0354    8.9609 N.ar    1  UNL1       -0.2290
     28 C          68.5785   92.6794    8.9119 C.ar    1  UNL1        0.1192
     29 C          68.1439   91.9178   10.1289 C.ar    1  UNL1        0.1019
     30 N          67.2357   92.8030   10.9300 N.ar    1  UNL1       -0.2923
@<TRIPOS>BOND
     1    25    26    1
     2    26    27   ar
     3    27    28   ar
     4    28    29   ar
     5    29    30   ar
     6    30    19    1
     7    19    20   ar
     8    20    21   ar
     9    21    22   ar
    10    22    18    1
    11    18    17    1
    12    17     1    1
    13     1     2    2
    14     1     3   am
    15     3     5    1
    16     5     6   ar
    17     6     7   ar
    18     7     8   ar
    19     8    11    1
    20    11    12   ar
    21    12    13   ar
    22    13    14   ar
    23    14    15   ar
    24    15    16   ar
    25     8     9   ar
    26     9    10   ar
    27    22    23   ar
    28    23    24   ar
    29    30    26   ar
    30    24    19   ar
    31    10     5   ar
    32    16    11   ar
    33     3     4    1
@<TRIPOS>MOLECULE
*****
 30 33 0 0 0
SMALL
GASTEIGER

@<TRIPOS>ATOM
      1 C          59.4652   89.0694    7.0937 C.2     1  UNL1        0.2707
      2 O          60.2499   89.8946    8.0701 O.2     1  UNL1       -0.2707
      3 N          59.5147   87.5721    7.1672 N.am    1  UNL1       -0.2809
      4 H          58.9997   87.0305    6.5264 H       1  UNL1        0.1550
      5 C          60.3490   86.8999    8.2170 C.ar    1  UNL1        0.0504
      6 C          60.1117   87.1978    9.6679 C.ar    1  UNL1        0.0147
      7 C          60.9459   86.5256   10.7178 C.ar    1  UNL1        0.0013
      8 C          62.0175   85.5556   10.3168 C.ar    1  UNL1        0.0001
      9 C          62.2548   85.2577    8.8660 C.ar    1  UNL1        0.0013
     10 C          61.4205   85.9299    7.8160 C.ar    1  UNL1        0.0147
     11 C          62.8517   84.8835   11.3666 C.ar    1  UNL1        0.0000
     12 C          63.1018   85.5679   12.6778 C.ar    1  UNL1        0.0000
     13 C          63.9360   84.8958   13.7276 C.ar    1  UNL1        0.0000
     14 C          64.5203   83.5392   13.4664 C.ar    1  UNL1        0.0000
     15 C          64.2703   82.8547   12.1553 C.ar    1  UNL1        0.0000
     16 C          63.4360   83.5268   11.1054 C.ar    1  UNL1        0.0000
     17 C          58.6309   89.7416    6.0438 C.3     1  UNL1        0.2897
     18 O          58.8034   91.2069    5.7734 O.3     1  UNL1       -0.4656
     19 C          61.6780   92.5857    2.5977 C.ar    1  UNL1        0.0653
     20 C          60.2980   93.1697    2.6647 C.ar    1  UNL1        0.0207
     21 C          59.3398   92.7101    3.7233 C.ar    1  UNL1        0.0384
     22 C          59.7616   91.6665    4.7148 C.ar    1  UNL1        0.1394
     23 C          61.1416   91.0826    4.6477 C.ar    1  UNL1        0.0384
     24 C          62.0998   91.5422    3.5892 C.ar    1  UNL1        0.0207
     25 C          61.0637   92.7556   -0.6029 C.3     1  UNL1        0.0722
     26 C          62.3539   93.1234    0.0680 C.ar    1  UNL1        0.1247
     27 N          63.5882   93.6339   -0.6145 N.ar    1  UNL1       -0.2290
     28 C          64.6335   93.8713    0.4348 C.ar    1  UNL1        0.1192
     29 C          64.0452   93.5076    1.7658 C.ar    1  UNL1        0.1019
     30 N          62.6363   93.0454    1.5391 N.ar    1  UNL1       -0.2923
@<TRIPOS>BOND
     1    25    26    1
     2    26    27   ar
     3    27    28   ar
     4    28    29   ar
     5    29    30   ar
     6    30    19    1
     7    19    20   ar
     8    20    21   ar
     9    21    22   ar
    10    22    18    1
    11    18    17    1
    12    17     1    1
    13     1     2    2
    14     1     3   am
    15     3     5    1
    16     5     6   ar
    17     6     7   ar
    18     7     8   ar
    19     8    11    1
    20    11    12   ar
    21    12    13   ar
    22    13    14   ar
    23    14    15   ar
    24    15    16   ar
    25     8     9   ar
    26     9    10   ar
    27    22    23   ar
    28    23    24   ar
    29    30    26   ar
    30    24    19   ar
    31    10     5   ar
    32    16    11   ar
    33     3     4    1
