@<TRIPOS>MOLECULE
*****
 48 50 0 0 0
SMALL
GASTEIGER

@<TRIPOS>ATOM
      1 C          63.3205   84.8582   12.4910 C.3     1  UNL1        0.0760
      2 N          63.1524   86.1704   13.1980 N.am    1  UNL1       -0.3043
      3 C          64.1015   86.5597   14.2925 C.2     1  UNL1        0.2403
      4 O          65.2186   85.6367   14.6799 O.2     1  UNL1       -0.2733
      5 H          62.4191   86.7762   12.9437 H       1  UNL1        0.1494
      6 C          63.9333   87.8719   14.9995 C.3     1  UNL1        0.1496
      7 N          64.3272   89.1478   14.3161 N.am    1  UNL1       -0.2824
      8 C          63.5589   89.6259   13.1198 C.2     1  UNL1        0.3046
      9 O          62.3968   88.8281   12.6068 O.2     1  UNL1       -0.2526
     10 N          63.9527   90.9018   12.4364 N.am    1  UNL1       -0.2567
     11 C          63.1845   91.3799   11.2401 C.3     1  UNL1        0.1168
     12 H          65.0899   89.6714   14.6528 H       1  UNL1        0.1514
     13 C          65.1148   91.6997   12.9494 C.3     1  UNL1        0.1413
     14 C          65.7959   92.6927   12.0550 C.ar    1  UNL1        0.0858
     15 C          65.8900   94.1713   12.2897 C.ar    1  UNL1        0.0530
     16 S          66.6547   94.7740   11.1487 S.2     1  UNL1       -0.0705
     17 C          67.0332   93.6679   10.2088 C.ar    1  UNL1        0.0875
     18 N          66.5024   92.3817   10.7689 N.ar    1  UNL1       -0.2453
     19 C          67.8066   93.8213    8.9328 C.3     1  UNL1        0.0465
     20 C          68.7067   92.7167    8.4640 C.3     1  UNL1        0.0069
     21 C          67.6801   95.0792    8.1255 C.3     1  UNL1        0.0069
     22 C          63.3714   87.9082   16.3897 C.3     1  UNL1        0.0270
     23 C          63.0725   86.6277   17.1116 C.3     1  UNL1        0.0022
     24 C          63.1084   89.2250   17.0581 C.3     1  UNL1        0.0022
     25 C          63.9076   83.6846   13.2176 C.3     1  UNL1        0.0459
     26 C          63.1422   82.3976   13.3057 C.ar    1  UNL1       -0.0205
     27 C          63.5147   81.2417   12.4253 C.ar    1  UNL1       -0.0042
     28 C          62.7493   79.9547   12.5134 C.ar    1  UNL1       -0.0003
     29 C          61.6114   79.8236   13.4819 C.ar    1  UNL1       -0.0000
     30 C          61.2389   80.9795   14.3623 C.ar    1  UNL1       -0.0003
     31 C          62.0043   82.2665   14.2741 C.ar    1  UNL1       -0.0042
     32 C          62.9014   84.7196   11.0574 C.3     1  UNL1        0.0216
     33 C          61.8984   85.6701   10.4739 C.3     1  UNL1        0.0214
     34 C          62.0287   86.1154    9.0475 C.3     1  UNL1        0.0748
     35 N          61.5573   87.4804    8.6419 N.am    1  UNL1       -0.2723
     36 C          60.1303   87.6892    8.2294 C.2     1  UNL1        0.4019
     37 O          59.1747   86.5331    8.2226 O.2     1  UNL1       -0.2264
     38 H          62.1845   88.2393    8.6464 H       1  UNL1        0.1527
     39 O          59.6589   89.0543    7.8238 O.3     1  UNL1       -0.4291
     40 C          58.7698   89.2156    6.6266 C.3     1  UNL1        0.2447
     41 C          58.9306   90.4058    5.7279 C.ar    1  UNL1        0.0714
     42 C          57.8311   91.3132    5.2613 C.ar    1  UNL1        0.1053
     43 N          58.4400   92.3658    4.3831 N.ar    1  UNL1       -0.2350
     44 C          59.9159   92.1090    4.3070 C.ar    1  UNL1        0.1343
     45 S          60.2191   90.8977    5.1382 S.2     1  UNL1       -0.0652
     46 C          62.6303   85.1956    8.0266 C.3     1  UNL1        0.0197
     47 C          62.4582   84.4104    5.5561 C.3     1  UNL1        0.0001
     48 C          61.8038   84.7144    6.8711 C.3     1  UNL1        0.0017
@<TRIPOS>BOND
     1    47    48    1
     2    48    46    1
     3    34    46    1
     4    34    33    1
     5    33    32    1
     6     1    32    1
     7     1    25    1
     8    25    26    1
     9    26    27   ar
    10    27    28   ar
    11    28    29   ar
    12    29    30   ar
    13    30    31   ar
    14     1     2    1
    15     2     3   am
    16     3     4    2
    17     3     6    1
    18     6     7    1
    19     7     8   am
    20     8     9    2
    21     8    10   am
    22    10    11    1
    23    10    13    1
    24    13    14    1
    25    14    15   ar
    26    15    16   ar
    27    16    17   ar
    28    17    19    1
    29    19    20    1
    30    19    21    1
    31    17    18   ar
    32     6    22    1
    33    22    23    1
    34    22    24    1
    35    34    35    1
    36    35    36   am
    37    36    37    2
    38    36    39    1
    39    39    40    1
    40    40    41    1
    41    41    42   ar
    42    42    43   ar
    43    43    44   ar
    44    44    45   ar
    45    31    26   ar
    46    18    14   ar
    47    45    41   ar
    48     2     5    1
    49     7    12    1
    50    35    38    1
@<TRIPOS>MOLECULE
*****
 48 50 0 0 0
SMALL
GASTEIGER

@<TRIPOS>ATOM
      1 C          62.3829   85.3354   11.5551 C.3     1  UNL1        0.0760
      2 N          63.1227   85.7008   12.8077 N.am    1  UNL1       -0.3043
      3 C          63.4857   87.1317   13.0740 C.2     1  UNL1        0.2403
      4 O          63.1089   88.1971   12.0876 O.2     1  UNL1       -0.2733
      5 H          63.3700   85.0016   13.4551 H       1  UNL1        0.1494
      6 C          64.2255   87.4971   14.3266 C.3     1  UNL1        0.1496
      7 N          64.7996   88.8740   14.4840 N.am    1  UNL1       -0.2824
      8 C          64.0902   89.8903   15.3289 C.2     1  UNL1        0.3046
      9 O          62.8067   89.5297   16.0165 O.2     1  UNL1       -0.2526
     10 N          64.6642   91.2671   15.4863 N.am    1  UNL1       -0.2567
     11 C          63.9548   92.2834   16.3313 C.3     1  UNL1        0.1168
     12 H          65.6420   89.1107   14.0327 H       1  UNL1        0.1514
     13 C          65.9477   91.6277   14.7987 C.3     1  UNL1        0.1413
     14 C          65.9432   91.9867   13.3424 C.ar    1  UNL1        0.0858
     15 C          64.7505   91.9661   12.4329 C.ar    1  UNL1        0.0530
     16 S          65.2008   92.3959   11.0682 S.2     1  UNL1       -0.0705
     17 C          66.6718   92.6822   11.1342 C.ar    1  UNL1        0.0875
     18 N          67.1306   92.4293   12.5397 N.ar    1  UNL1       -0.2453
     19 C          67.5328   93.1409    9.9948 C.3     1  UNL1        0.0465
     20 C          68.5988   92.2376    9.4493 C.3     1  UNL1        0.0069
     21 C          67.3277   94.5029    9.4007 C.3     1  UNL1        0.0069
     22 C          64.3913   86.4858   15.4219 C.3     1  UNL1        0.0270
     23 C          65.4946   85.4724   15.3463 C.3     1  UNL1        0.0022
     24 C          63.4537   86.4878   16.5927 C.3     1  UNL1        0.0022
     25 C          62.8149   84.1468   10.7486 C.3     1  UNL1        0.0459
     26 C          62.7572   82.7728   11.3477 C.ar    1  UNL1       -0.0205
     27 C          63.1212   81.5771   10.5184 C.ar    1  UNL1       -0.0042
     28 C          63.0635   80.2032   11.1176 C.ar    1  UNL1       -0.0003
     29 C          62.6419   80.0250   12.5460 C.ar    1  UNL1       -0.0000
     30 C          62.2780   81.2207   13.3753 C.ar    1  UNL1       -0.0003
     31 C          62.3356   82.5946   12.7762 C.ar    1  UNL1       -0.0042
     32 C          61.2110   86.1586   11.1089 C.3     1  UNL1        0.0216
     33 C          61.3068   86.9853    9.8610 C.3     1  UNL1        0.0214
     34 C          60.4937   88.2388    9.7275 C.3     1  UNL1        0.0748
     35 N          60.3579   88.9058    8.3909 N.am    1  UNL1       -0.2723
     36 C          59.3355   88.4160    7.4086 C.2     1  UNL1        0.4019
     37 O          58.4489   87.2591    7.7630 O.2     1  UNL1       -0.2264
     38 H          60.9398   89.6651    8.1583 H       1  UNL1        0.1527
     39 O          59.1997   89.0831    6.0720 O.3     1  UNL1       -0.4291
     40 C          59.0186   90.5698    5.9908 C.3     1  UNL1        0.2447
     41 C          59.6928   91.3491    4.9007 C.ar    1  UNL1        0.0714
     42 C          61.1269   91.2182    4.4809 C.ar    1  UNL1        0.1053
     43 N          61.3718   92.1842    3.3598 N.ar    1  UNL1       -0.2350
     44 C          60.0890   92.9121    3.0867 C.ar    1  UNL1        0.1343
     45 S          59.0514   92.3960    4.0391 S.2     1  UNL1       -0.0652
     46 C          59.8164   88.8252   10.9307 C.3     1  UNL1        0.0197
     47 C          61.4325   90.8518   11.1057 C.3     1  UNL1        0.0001
     48 C          60.0738   90.2520   11.3152 C.3     1  UNL1        0.0017
@<TRIPOS>BOND
     1    47    48    1
     2    48    46    1
     3    34    46    1
     4    34    33    1
     5    33    32    1
     6     1    32    1
     7     1    25    1
     8    25    26    1
     9    26    27   ar
    10    27    28   ar
    11    28    29   ar
    12    29    30   ar
    13    30    31   ar
    14     1     2    1
    15     2     3   am
    16     3     4    2
    17     3     6    1
    18     6     7    1
    19     7     8   am
    20     8     9    2
    21     8    10   am
    22    10    11    1
    23    10    13    1
    24    13    14    1
    25    14    15   ar
    26    15    16   ar
    27    16    17   ar
    28    17    19    1
    29    19    20    1
    30    19    21    1
    31    17    18   ar
    32     6    22    1
    33    22    23    1
    34    22    24    1
    35    34    35    1
    36    35    36   am
    37    36    37    2
    38    36    39    1
    39    39    40    1
    40    40    41    1
    41    41    42   ar
    42    42    43   ar
    43    43    44   ar
    44    44    45   ar
    45    31    26   ar
    46    18    14   ar
    47    45    41   ar
    48     2     5    1
    49     7    12    1
    50    35    38    1
@<TRIPOS>MOLECULE
*****
 48 50 0 0 0
SMALL
GASTEIGER

@<TRIPOS>ATOM
      1 C          62.1192   87.8959   11.0316 C.3     1  UNL1        0.0760
      2 N          62.7958   88.3124   12.3039 N.am    1  UNL1       -0.3043
      3 C          63.2934   89.7185   12.4632 C.2     1  UNL1        0.2403
      4 O          63.1144   90.7081   11.3503 O.2     1  UNL1       -0.2733
      5 H          62.9133   87.6629   13.0344 H       1  UNL1        0.1494
      6 C          63.9700   90.1350   13.7355 C.3     1  UNL1        0.1496
      7 N          64.7434   91.4192   13.7881 N.am    1  UNL1       -0.2824
      8 C          66.1279   91.4379   14.3650 C.2     1  UNL1        0.3046
      9 O          66.7390   90.1723   14.8895 O.2     1  UNL1       -0.2526
     10 N          66.9013   92.7221   14.4176 N.am    1  UNL1       -0.2567
     11 C          68.2857   92.7407   14.9946 C.3     1  UNL1        0.1168
     12 H          64.3423   92.2498   13.4439 H       1  UNL1        0.1514
     13 C          66.2902   93.9876   13.8932 C.3     1  UNL1        0.1413
     14 C          66.5029   94.3866   12.4630 C.ar    1  UNL1        0.0858
     15 C          66.0717   95.6787   11.8346 C.ar    1  UNL1        0.0530
     16 S          66.4864   95.6543   10.3933 S.2     1  UNL1       -0.0705
     17 C          67.1739   94.3471   10.1309 C.ar    1  UNL1        0.0875
     18 N          67.1840   93.5637   11.4100 N.ar    1  UNL1       -0.2453
     19 C          67.7500   93.9016    8.8196 C.3     1  UNL1        0.0465
     20 C          68.5491   92.6345    8.7432 C.3     1  UNL1        0.0069
     21 C          67.5271   94.7232    7.5846 C.3     1  UNL1        0.0069
     22 C          63.8733   89.2673   14.9552 C.3     1  UNL1        0.0270
     23 C          64.4182   87.8700   14.9268 C.3     1  UNL1        0.0022
     24 C          63.2318   89.7969   16.2034 C.3     1  UNL1        0.0022
     25 C          60.6545   88.1570   10.8409 C.3     1  UNL1        0.0459
     26 C          60.0756   88.2079    9.4580 C.ar    1  UNL1       -0.0205
     27 C          59.3968   86.9997    8.8841 C.ar    1  UNL1       -0.0042
     28 C          58.8179   87.0508    7.5012 C.ar    1  UNL1       -0.0003
     29 C          58.9179   88.3100    6.6923 C.ar    1  UNL1       -0.0000
     30 C          59.5967   89.5182    7.2662 C.ar    1  UNL1       -0.0003
     31 C          60.1755   89.4672    8.6490 C.ar    1  UNL1       -0.0042
     32 C          62.9074   87.2183    9.9500 C.3     1  UNL1        0.0216
     33 C          62.5525   85.8245    9.5245 C.3     1  UNL1        0.0214
     34 C          62.8270   84.6682   10.4396 C.3     1  UNL1        0.0748
     35 N          62.0606   84.5278   11.7214 N.am    1  UNL1       -0.2723
     36 C          62.7002   84.9099   13.0234 C.2     1  UNL1        0.4019
     37 O          64.1062   85.4322   13.0435 O.2     1  UNL1       -0.2264
     38 H          61.1378   84.1850   11.7082 H       1  UNL1        0.1527
     39 O          61.9339   84.7695   14.3052 O.3     1  UNL1       -0.4291
     40 C          62.1731   83.5870   15.1964 C.3     1  UNL1        0.2447
     41 C          62.4297   82.2360   14.5973 C.ar    1  UNL1        0.0714
     42 C          63.7737   81.6000   14.3998 C.ar    1  UNL1        0.1053
     43 N          63.5621   80.2547   13.7709 N.ar    1  UNL1       -0.2350
     44 C          62.0872   80.0593   13.5797 C.ar    1  UNL1        0.1343
     45 S          61.3874   81.2839   14.0904 S.2     1  UNL1       -0.0652
     46 C          63.8678   83.6521   10.0731 C.3     1  UNL1        0.0197
     47 C          63.2969   81.1348   10.3680 C.3     1  UNL1        0.0001
     48 C          63.9804   82.3777   10.8560 C.3     1  UNL1        0.0017
@<TRIPOS>BOND
     1    47    48    1
     2    48    46    1
     3    34    46    1
     4    34    33    1
     5    33    32    1
     6     1    32    1
     7     1    25    1
     8    25    26    1
     9    26    27   ar
    10    27    28   ar
    11    28    29   ar
    12    29    30   ar
    13    30    31   ar
    14     1     2    1
    15     2     3   am
    16     3     4    2
    17     3     6    1
    18     6     7    1
    19     7     8   am
    20     8     9    2
    21     8    10   am
    22    10    11    1
    23    10    13    1
    24    13    14    1
    25    14    15   ar
    26    15    16   ar
    27    16    17   ar
    28    17    19    1
    29    19    20    1
    30    19    21    1
    31    17    18   ar
    32     6    22    1
    33    22    23    1
    34    22    24    1
    35    34    35    1
    36    35    36   am
    37    36    37    2
    38    36    39    1
    39    39    40    1
    40    40    41    1
    41    41    42   ar
    42    42    43   ar
    43    43    44   ar
    44    44    45   ar
    45    31    26   ar
    46    18    14   ar
    47    45    41   ar
    48     2     5    1
    49     7    12    1
    50    35    38    1
@<TRIPOS>MOLECULE
*****
 48 50 0 0 0
SMALL
GASTEIGER

@<TRIPOS>ATOM
      1 C          61.8743   88.5479   11.2455 C.3     1  UNL1        0.0760
      2 N          62.4880   89.0017   12.5368 N.am    1  UNL1       -0.3043
      3 C          63.4750   90.1313   12.5420 C.2     1  UNL1        0.2403
      4 O          63.8482   90.8071   11.2559 O.2     1  UNL1       -0.2733
      5 H          62.2430   88.5582   13.3809 H       1  UNL1        0.1494
      6 C          64.0887   90.5851   13.8333 C.3     1  UNL1        0.1496
      7 N          64.8811   91.8579   13.8806 N.am    1  UNL1       -0.2824
      8 C          66.2721   91.8548   14.4421 C.2     1  UNL1        0.3046
      9 O          66.8706   90.5790   14.9562 O.2     1  UNL1       -0.2526
     10 N          67.0646   93.1274   14.4894 N.am    1  UNL1       -0.2567
     11 C          68.4556   93.1244   15.0508 C.3     1  UNL1        0.1168
     12 H          64.4883   92.6952   13.5432 H       1  UNL1        0.1514
     13 C          66.4661   94.4032   13.9753 C.3     1  UNL1        0.1413
     14 C          66.5728   94.7485   12.5195 C.ar    1  UNL1        0.0858
     15 C          66.0922   96.0155   11.8763 C.ar    1  UNL1        0.0530
     16 S          66.4012   95.9374   10.4106 S.2     1  UNL1       -0.0705
     17 C          67.0728   94.6221   10.1479 C.ar    1  UNL1        0.0875
     18 N          67.1789   93.8874   11.4513 N.ar    1  UNL1       -0.2453
     19 C          67.5540   94.1283    8.8157 C.3     1  UNL1        0.0465
     20 C          67.2706   94.9219    7.5748 C.3     1  UNL1        0.0069
     21 C          68.3185   92.8410    8.7245 C.3     1  UNL1        0.0069
     22 C          63.9099   89.7662   15.0772 C.3     1  UNL1        0.0270
     23 C          63.4077   90.4119   16.3345 C.3     1  UNL1        0.0022
     24 C          64.2333   88.3016   15.0639 C.3     1  UNL1        0.0022
     25 C          60.7502   89.3302   10.6336 C.3     1  UNL1        0.0459
     26 C          60.1174   88.8606    9.3572 C.ar    1  UNL1       -0.0205
     27 C          60.0641   89.7719    8.1669 C.ar    1  UNL1       -0.0042
     28 C          59.4313   89.3023    6.8906 C.ar    1  UNL1       -0.0003
     29 C          58.8518   87.9214    6.8046 C.ar    1  UNL1       -0.0000
     30 C          58.9051   87.0101    7.9948 C.ar    1  UNL1       -0.0003
     31 C          59.5379   87.4797    9.2711 C.ar    1  UNL1       -0.0042
     32 C          62.3848   87.3118   10.5660 C.3     1  UNL1        0.0216
     33 C          61.9694   85.9582   11.0609 C.3     1  UNL1        0.0214
     34 C          62.5440   84.7220   10.4349 C.3     1  UNL1        0.0748
     35 N          62.5271   83.4237   11.1860 N.am    1  UNL1       -0.2723
     36 C          63.7811   82.6090   11.3036 C.2     1  UNL1        0.4019
     37 O          65.0518   83.0925   10.6701 O.2     1  UNL1       -0.2264
     38 H          61.6930   83.1064   11.6018 H       1  UNL1        0.1527
     39 O          63.7642   81.3107   12.0547 O.3     1  UNL1       -0.4291
     40 C          63.7030   81.3120   13.5534 C.3     1  UNL1        0.2447
     41 C          63.4250   82.5878   14.2916 C.ar    1  UNL1        0.0714
     42 C          62.0781   83.0697   14.7429 C.ar    1  UNL1        0.1053
     43 N          62.2656   84.3855   15.4383 N.ar    1  UNL1       -0.2350
     44 C          63.7284   84.7168   15.4167 C.ar    1  UNL1        0.1343
     45 S          64.4449   83.6058   14.7080 S.2     1  UNL1       -0.0652
     46 C          63.1354   84.7842    9.0578 C.3     1  UNL1        0.0197
     47 C          62.3736   84.5816    6.5823 C.3     1  UNL1        0.0001
     48 C          62.3090   85.2798    7.9083 C.3     1  UNL1        0.0017
@<TRIPOS>BOND
     1    47    48    1
     2    48    46    1
     3    34    46    1
     4    34    33    1
     5    33    32    1
     6     1    32    1
     7     1    25    1
     8    25    26    1
     9    26    27   ar
    10    27    28   ar
    11    28    29   ar
    12    29    30   ar
    13    30    31   ar
    14     1     2    1
    15     2     3   am
    16     3     4    2
    17     3     6    1
    18     6     7    1
    19     7     8   am
    20     8     9    2
    21     8    10   am
    22    10    11    1
    23    10    13    1
    24    13    14    1
    25    14    15   ar
    26    15    16   ar
    27    16    17   ar
    28    17    19    1
    29    19    20    1
    30    19    21    1
    31    17    18   ar
    32     6    22    1
    33    22    23    1
    34    22    24    1
    35    34    35    1
    36    35    36   am
    37    36    37    2
    38    36    39    1
    39    39    40    1
    40    40    41    1
    41    41    42   ar
    42    42    43   ar
    43    43    44   ar
    44    44    45   ar
    45    31    26   ar
    46    18    14   ar
    47    45    41   ar
    48     2     5    1
    49     7    12    1
    50    35    38    1
@<TRIPOS>MOLECULE
*****
 48 50 0 0 0
SMALL
GASTEIGER

@<TRIPOS>ATOM
      1 C          62.5388   91.1705   11.2100 C.3     1  UNL1        0.0760
      2 N          63.1175   90.9820   12.5810 N.am    1  UNL1       -0.3043
      3 C          63.5953   89.6276   13.0137 C.2     1  UNL1        0.2403
      4 O          63.4944   88.4616   12.0754 O.2     1  UNL1       -0.2733
      5 H          63.1837   91.7473   13.1968 H       1  UNL1        0.1494
      6 C          64.1739   89.4391   14.3847 C.3     1  UNL1        0.1496
      7 N          64.2169   88.0713   14.9991 N.am    1  UNL1       -0.2824
      8 C          63.2239   87.6931   16.0578 C.2     1  UNL1        0.3046
      9 O          62.1879   88.6828   16.5022 O.2     1  UNL1       -0.2526
     10 N          63.2669   86.3254   16.6722 N.am    1  UNL1       -0.2567
     11 C          62.2739   85.9473   17.7309 C.3     1  UNL1        0.1168
     12 H          64.8969   87.4218   14.7074 H       1  UNL1        0.1514
     13 C          64.3029   85.3358   16.2278 C.3     1  UNL1        0.1413
     14 C          63.9943   84.3738   15.1191 C.ar    1  UNL1        0.0858
     15 C          64.5617   84.4165   13.7312 C.ar    1  UNL1        0.0530
     16 S          63.9822   83.2692   12.9580 S.2     1  UNL1       -0.0705
     17 C          63.0567   82.5174   13.8681 C.ar    1  UNL1        0.0875
     18 N          63.0642   83.2000   15.2037 N.ar    1  UNL1       -0.2453
     19 C          62.2630   81.2971   13.5060 C.3     1  UNL1        0.0465
     20 C          62.7838   80.3432   12.4723 C.3     1  UNL1        0.0069
     21 C          60.9485   81.0308   14.1778 C.3     1  UNL1        0.0069
     22 C          64.7095   90.6183   15.1413 C.3     1  UNL1        0.0270
     23 C          63.9152   91.2105   16.2675 C.3     1  UNL1        0.0022
     24 C          66.0394   91.2054   14.7717 C.3     1  UNL1        0.0022
     25 C          63.4134   91.6380   10.0845 C.3     1  UNL1        0.0459
     26 C          64.6463   92.4410   10.3765 C.ar    1  UNL1       -0.0205
     27 C          64.6985   93.8948   10.0111 C.ar    1  UNL1       -0.0042
     28 C          65.9313   94.6977   10.3031 C.ar    1  UNL1       -0.0003
     29 C          67.1121   94.0468   10.9605 C.ar    1  UNL1       -0.0000
     30 C          67.0599   92.5929   11.3259 C.ar    1  UNL1       -0.0003
     31 C          65.8270   91.7900   11.0339 C.ar    1  UNL1       -0.0042
     32 C          61.0856   90.8915   10.9644 C.3     1  UNL1        0.0216
     33 C          60.6143   89.4800   10.7757 C.3     1  UNL1        0.0214
     34 C          60.8423   88.7817    9.4679 C.3     1  UNL1        0.0748
     35 N          60.3927   89.4214    8.1878 N.am    1  UNL1       -0.2723
     36 C          59.3497   88.7534    7.3416 C.2     1  UNL1        0.4019
     37 O          58.7563   87.4459    7.7755 O.2     1  UNL1       -0.2264
     38 H          60.7821   90.2796    7.9030 H       1  UNL1        0.1527
     39 O          58.9001   89.3930    6.0614 O.3     1  UNL1       -0.4291
     40 C          58.9358   90.8855    5.9157 C.3     1  UNL1        0.2447
     41 C          59.7508   91.5131    4.8241 C.ar    1  UNL1        0.0714
     42 C          61.1972   91.2401    4.5354 C.ar    1  UNL1        0.1053
     43 N          61.6029   92.0823    3.3623 N.ar    1  UNL1       -0.2350
     44 C          60.4072   92.8759    2.9259 C.ar    1  UNL1        0.1343
     45 S          59.2626   92.5241    3.8293 S.2     1  UNL1       -0.0652
     46 C          61.5199   87.4438    9.4402 C.3     1  UNL1        0.0197
     47 C          62.0714   85.2082   10.6434 C.3     1  UNL1        0.0001
     48 C          61.2001   86.4192   10.4880 C.3     1  UNL1        0.0017
@<TRIPOS>BOND
     1    47    48    1
     2    48    46    1
     3    34    46    1
     4    34    33    1
     5    33    32    1
     6     1    32    1
     7     1    25    1
     8    25    26    1
     9    26    27   ar
    10    27    28   ar
    11    28    29   ar
    12    29    30   ar
    13    30    31   ar
    14     1     2    1
    15     2     3   am
    16     3     4    2
    17     3     6    1
    18     6     7    1
    19     7     8   am
    20     8     9    2
    21     8    10   am
    22    10    11    1
    23    10    13    1
    24    13    14    1
    25    14    15   ar
    26    15    16   ar
    27    16    17   ar
    28    17    19    1
    29    19    20    1
    30    19    21    1
    31    17    18   ar
    32     6    22    1
    33    22    23    1
    34    22    24    1
    35    34    35    1
    36    35    36   am
    37    36    37    2
    38    36    39    1
    39    39    40    1
    40    40    41    1
    41    41    42   ar
    42    42    43   ar
    43    43    44   ar
    44    44    45   ar
    45    31    26   ar
    46    18    14   ar
    47    45    41   ar
    48     2     5    1
    49     7    12    1
    50    35    38    1
@<TRIPOS>MOLECULE
*****
 48 50 0 0 0
SMALL
GASTEIGER

@<TRIPOS>ATOM
      1 C          64.0886   91.8857   11.0041 C.3     1  UNL1        0.0760
      2 N          64.3726   91.2059   12.3107 N.am    1  UNL1       -0.3043
      3 C          65.1060   91.9397   13.3941 C.2     1  UNL1        0.2403
      4 O          65.5553   93.3533   13.1709 O.2     1  UNL1       -0.2733
      5 H          64.0777   90.2781   12.4572 H       1  UNL1        0.1494
      6 C          65.3900   91.2599   14.7007 C.3     1  UNL1        0.1496
      7 N          65.0911   89.7993   14.8667 N.am    1  UNL1       -0.2824
      8 C          63.9489   89.3615   15.7348 C.2     1  UNL1        0.3046
      9 O          63.1055   90.3842   16.4368 O.2     1  UNL1       -0.2526
     10 N          63.6500   87.9010   15.9009 N.am    1  UNL1       -0.2567
     11 C          62.5077   87.4632   16.7689 C.3     1  UNL1        0.1168
     12 H          65.6447   89.1281   14.4060 H       1  UNL1        0.1514
     13 C          64.4934   86.8782   15.1988 C.3     1  UNL1        0.1413
     14 C          63.8939   85.5662   14.7876 C.ar    1  UNL1        0.0858
     15 C          63.0918   84.6501   15.6637 C.ar    1  UNL1        0.0530
     16 S          62.6935   83.4576   14.8457 S.2     1  UNL1       -0.0705
     17 C          63.2495   83.6366   13.4640 C.ar    1  UNL1        0.0875
     18 N          63.9914   84.9398   13.4282 N.ar    1  UNL1       -0.2453
     19 C          63.0913   82.6804   12.3192 C.3     1  UNL1        0.0465
     20 C          62.3588   81.3866   12.5184 C.3     1  UNL1        0.0069
     21 C          63.6656   83.0178   10.9753 C.3     1  UNL1        0.0069
     22 C          65.9729   92.0405   15.8412 C.3     1  UNL1        0.0270
     23 C          65.0732   92.6088   16.8984 C.3     1  UNL1        0.0022
     24 C          67.4554   92.2529   15.9245 C.3     1  UNL1        0.0022
     25 C          64.7422   93.1971   10.6833 C.3     1  UNL1        0.0459
     26 C          66.1420   93.2257   10.1451 C.ar    1  UNL1       -0.0205
     27 C          66.6486   94.4472    9.4371 C.ar    1  UNL1       -0.0042
     28 C          68.0484   94.4757    8.8989 C.ar    1  UNL1       -0.0003
     29 C          68.9416   93.2827    9.0686 C.ar    1  UNL1       -0.0000
     30 C          68.4351   92.0611    9.7766 C.ar    1  UNL1       -0.0003
     31 C          67.0353   92.0326   10.3148 C.ar    1  UNL1       -0.0042
     32 C          63.1509   91.2540   10.0182 C.3     1  UNL1        0.0216
     33 C          62.7712   89.8102   10.1633 C.3     1  UNL1        0.0214
     34 C          61.3262   89.4088   10.1405 C.3     1  UNL1        0.0748
     35 N          60.5307   89.5418    8.8758 N.am    1  UNL1       -0.2723
     36 C          60.1078   88.3151    8.1231 C.2     1  UNL1        0.4019
     37 O          60.4805   86.9554    8.6353 O.2     1  UNL1       -0.2264
     38 H          60.2861   90.4343    8.5397 H       1  UNL1        0.1527
     39 O          59.3124   88.4481    6.8584 O.3     1  UNL1       -0.4291
     40 C          58.4544   89.6581    6.6359 C.3     1  UNL1        0.2447
     41 C          58.8468   90.6769    5.6073 C.ar    1  UNL1        0.0714
     42 C          57.9167   91.6122    4.8930 C.ar    1  UNL1        0.1053
     43 N          58.7333   92.4527    3.9566 N.ar    1  UNL1       -0.2350
     44 C          60.1682   92.0368    4.0921 C.ar    1  UNL1        0.1343
     45 S          60.2383   90.9394    5.1123 S.2     1  UNL1       -0.0652
     46 C          60.6765   88.8743   11.3824 C.3     1  UNL1        0.0197
     47 C          59.1514   90.9684   11.5788 C.3     1  UNL1        0.0001
     48 C          59.4538   89.5435   11.9367 C.3     1  UNL1        0.0017
@<TRIPOS>BOND
     1    47    48    1
     2    48    46    1
     3    34    46    1
     4    34    33    1
     5    33    32    1
     6     1    32    1
     7     1    25    1
     8    25    26    1
     9    26    27   ar
    10    27    28   ar
    11    28    29   ar
    12    29    30   ar
    13    30    31   ar
    14     1     2    1
    15     2     3   am
    16     3     4    2
    17     3     6    1
    18     6     7    1
    19     7     8   am
    20     8     9    2
    21     8    10   am
    22    10    11    1
    23    10    13    1
    24    13    14    1
    25    14    15   ar
    26    15    16   ar
    27    16    17   ar
    28    17    19    1
    29    19    20    1
    30    19    21    1
    31    17    18   ar
    32     6    22    1
    33    22    23    1
    34    22    24    1
    35    34    35    1
    36    35    36   am
    37    36    37    2
    38    36    39    1
    39    39    40    1
    40    40    41    1
    41    41    42   ar
    42    42    43   ar
    43    43    44   ar
    44    44    45   ar
    45    31    26   ar
    46    18    14   ar
    47    45    41   ar
    48     2     5    1
    49     7    12    1
    50    35    38    1
@<TRIPOS>MOLECULE
*****
 48 50 0 0 0
SMALL
GASTEIGER

@<TRIPOS>ATOM
      1 C          64.2368   91.7773   11.8434 C.3     1  UNL1        0.0760
      2 N          63.7116   90.7590   12.8115 N.am    1  UNL1       -0.3043
      3 C          64.5995   90.2296   13.8985 C.2     1  UNL1        0.2403
      4 O          66.0125   90.7185   14.0174 O.2     1  UNL1       -0.2733
      5 H          62.7841   90.4380   12.7334 H       1  UNL1        0.1494
      6 C          64.0742   89.2112   14.8665 C.3     1  UNL1        0.1496
      7 N          64.0333   87.7619   14.4818 N.am    1  UNL1       -0.2824
      8 C          63.3608   87.3427   13.2082 C.2     1  UNL1        0.3046
      9 O          62.7292   88.3729   12.3193 O.2     1  UNL1       -0.2526
     10 N          63.3198   85.8935   12.8235 N.am    1  UNL1       -0.2567
     11 C          62.6473   85.4743   11.5499 C.3     1  UNL1        0.1168
     12 H          64.4478   87.0859   15.0652 H       1  UNL1        0.1514
     13 C          63.9514   84.8634   13.7124 C.3     1  UNL1        0.1413
     14 C          63.6558   83.4080   13.5015 C.ar    1  UNL1        0.0858
     15 C          64.5311   82.4260   12.7808 C.ar    1  UNL1        0.0530
     16 S          63.8493   81.0902   12.8081 S.2     1  UNL1       -0.0705
     17 C          62.5525   81.2467   13.5457 C.ar    1  UNL1        0.0875
     18 N          62.4330   82.6792   13.9742 N.ar    1  UNL1       -0.2453
     19 C          61.5512   80.1612   13.8086 C.3     1  UNL1        0.0465
     20 C          60.1381   80.5151   14.1663 C.3     1  UNL1        0.0069
     21 C          61.9629   78.7220   13.7138 C.3     1  UNL1        0.0069
     22 C          63.5900   89.6421   16.2192 C.3     1  UNL1        0.0270
     23 C          63.6591   91.0872   16.6153 C.3     1  UNL1        0.0022
     24 C          63.0366   88.6279   17.1757 C.3     1  UNL1        0.0022
     25 C          65.3382   92.7076   12.2575 C.3     1  UNL1        0.0459
     26 C          66.2038   93.3550   11.2174 C.ar    1  UNL1       -0.0205
     27 C          66.1000   94.8304   10.9677 C.ar    1  UNL1       -0.0042
     28 C          66.9656   95.4777    9.9277 C.ar    1  UNL1       -0.0003
     29 C          67.9350   94.6497    9.1374 C.ar    1  UNL1       -0.0000
     30 C          68.0388   93.1743    9.3871 C.ar    1  UNL1       -0.0003
     31 C          67.1732   92.5270   10.4271 C.ar    1  UNL1       -0.0042
     32 C          63.6606   91.8653   10.4613 C.3     1  UNL1        0.0216
     33 C          62.9791   90.6743    9.8555 C.3     1  UNL1        0.0214
     34 C          61.4946   90.5092    9.9930 C.3     1  UNL1        0.0748
     35 N          60.6720   90.1036    8.8061 N.am    1  UNL1       -0.2723
     36 C          60.4081   88.6516    8.5374 C.2     1  UNL1        0.4019
     37 O          60.9669   87.6053    9.4555 O.2     1  UNL1       -0.2264
     38 H          60.3052   90.7903    8.2035 H       1  UNL1        0.1527
     39 O          59.5855   88.2460    7.3505 O.3     1  UNL1       -0.4291
     40 C          58.5250   89.1664    6.8231 C.3     1  UNL1        0.2447
     41 C          58.8890   90.2540    5.8563 C.ar    1  UNL1        0.0714
     42 C          60.2681   90.5604    5.3522 C.ar    1  UNL1        0.1053
     43 N          60.1692   91.7219    4.4081 N.ar    1  UNL1       -0.2350
     44 C          58.7289   92.1332    4.3287 C.ar    1  UNL1        0.1343
     45 S          57.9377   91.2260    5.2237 S.2     1  UNL1       -0.0652
     46 C          60.8327   90.7498   11.3175 C.3     1  UNL1        0.0197
     47 C          59.0067   89.1872   12.3041 C.3     1  UNL1        0.0001
     48 C          59.3865   90.4001   11.5076 C.3     1  UNL1        0.0017
@<TRIPOS>BOND
     1    47    48    1
     2    48    46    1
     3    34    46    1
     4    34    33    1
     5    33    32    1
     6     1    32    1
     7     1    25    1
     8    25    26    1
     9    26    27   ar
    10    27    28   ar
    11    28    29   ar
    12    29    30   ar
    13    30    31   ar
    14     1     2    1
    15     2     3   am
    16     3     4    2
    17     3     6    1
    18     6     7    1
    19     7     8   am
    20     8     9    2
    21     8    10   am
    22    10    11    1
    23    10    13    1
    24    13    14    1
    25    14    15   ar
    26    15    16   ar
    27    16    17   ar
    28    17    19    1
    29    19    20    1
    30    19    21    1
    31    17    18   ar
    32     6    22    1
    33    22    23    1
    34    22    24    1
    35    34    35    1
    36    35    36   am
    37    36    37    2
    38    36    39    1
    39    39    40    1
    40    40    41    1
    41    41    42   ar
    42    42    43   ar
    43    43    44   ar
    44    44    45   ar
    45    31    26   ar
    46    18    14   ar
    47    45    41   ar
    48     2     5    1
    49     7    12    1
    50    35    38    1
@<TRIPOS>MOLECULE
*****
 48 50 0 0 0
SMALL
GASTEIGER

@<TRIPOS>ATOM
      1 C          63.3610   89.1843   12.7722 C.3     1  UNL1        0.0760
      2 N          63.8663   87.9456   13.4506 N.am    1  UNL1       -0.3043
      3 C          63.2590   86.6126   13.1275 C.2     1  UNL1        0.2403
      4 O          62.1464   86.5184   12.1260 O.2     1  UNL1       -0.2733
      5 H          64.5966   88.0075   14.1080 H       1  UNL1        0.1494
      6 C          63.7644   85.3740   13.8059 C.3     1  UNL1        0.1496
      7 N          63.3888   84.0220   13.2755 N.am    1  UNL1       -0.2824
      8 C          62.3974   83.1746   14.0164 C.2     1  UNL1        0.3046
      9 O          61.7815   83.6792   15.2878 O.2     1  UNL1       -0.2526
     10 N          62.0218   81.8227   13.4861 N.am    1  UNL1       -0.2567
     11 C          61.0304   80.9753   14.2270 C.3     1  UNL1        0.1168
     12 H          63.7930   83.6909   12.4411 H       1  UNL1        0.1514
     13 C          62.6377   81.3182   12.2148 C.3     1  UNL1        0.1413
     14 C          63.1474   82.2891   11.1914 C.ar    1  UNL1        0.0858
     15 C          64.5777   82.4590   10.7726 C.ar    1  UNL1        0.0530
     16 S          64.6306   83.5356    9.7295 S.2     1  UNL1       -0.0705
     17 C          63.2328   84.0311    9.5036 C.ar    1  UNL1        0.0875
     18 N          62.3162   83.2608   10.4071 N.ar    1  UNL1       -0.2453
     19 C          62.8236   85.1079    8.5428 C.3     1  UNL1        0.0465
     20 C          62.7822   86.5383    8.9927 C.3     1  UNL1        0.0069
     21 C          62.4559   84.7544    7.1322 C.3     1  UNL1        0.0069
     22 C          64.6453   85.4872   15.0147 C.3     1  UNL1        0.0270
     23 C          64.0439   85.7885   16.3554 C.3     1  UNL1        0.0022
     24 C          66.1275   85.2991   14.8827 C.3     1  UNL1        0.0022
     25 C          63.3969   90.5006   13.4905 C.3     1  UNL1        0.0459
     26 C          64.6883   91.2543   13.6109 C.ar    1  UNL1       -0.0205
     27 C          65.5279   91.1110   14.8456 C.ar    1  UNL1       -0.0042
     28 C          66.8192   91.8647   14.9660 C.ar    1  UNL1       -0.0003
     29 C          67.2708   92.7617   13.8518 C.ar    1  UNL1       -0.0000
     30 C          66.4311   92.9050   12.6171 C.ar    1  UNL1       -0.0003
     31 C          65.1399   92.1513   12.4967 C.ar    1  UNL1       -0.0042
     32 C          62.8196   89.1066   11.3754 C.3     1  UNL1        0.0216
     33 C          62.1583   90.3039   10.7597 C.3     1  UNL1        0.0214
     34 C          60.6994   90.2596   10.4136 C.3     1  UNL1        0.0748
     35 N          60.2722   90.0721    8.9880 N.am    1  UNL1       -0.2723
     36 C          59.8035   88.7276    8.5161 C.2     1  UNL1        0.4019
     37 O          59.7621   87.5706    9.4698 O.2     1  UNL1       -0.2264
     38 H          60.2994   90.8315    8.3620 H       1  UNL1        0.1527
     39 O          59.3763   88.5401    7.0905 O.3     1  UNL1       -0.4291
     40 C          58.3537   89.4568    6.4873 C.3     1  UNL1        0.2447
     41 C          58.7862   90.5660    5.5749 C.ar    1  UNL1        0.0714
     42 C          57.8829   91.5544    4.8987 C.ar    1  UNL1        0.1053
     43 N          58.7363   92.4809    4.0844 N.ar    1  UNL1       -0.2350
     44 C          60.1672   92.0652    4.2573 C.ar    1  UNL1        0.1343
     45 S          60.1980   90.8818    5.1784 S.2     1  UNL1       -0.0652
     46 C          59.6678   90.4028   11.4930 C.3     1  UNL1        0.0197
     47 C          58.1433   88.8577   12.9207 C.3     1  UNL1        0.0001
     48 C          59.5123   89.3293   12.5290 C.3     1  UNL1        0.0017
@<TRIPOS>BOND
     1    47    48    1
     2    48    46    1
     3    34    46    1
     4    34    33    1
     5    33    32    1
     6     1    32    1
     7     1    25    1
     8    25    26    1
     9    26    27   ar
    10    27    28   ar
    11    28    29   ar
    12    29    30   ar
    13    30    31   ar
    14     1     2    1
    15     2     3   am
    16     3     4    2
    17     3     6    1
    18     6     7    1
    19     7     8   am
    20     8     9    2
    21     8    10   am
    22    10    11    1
    23    10    13    1
    24    13    14    1
    25    14    15   ar
    26    15    16   ar
    27    16    17   ar
    28    17    19    1
    29    19    20    1
    30    19    21    1
    31    17    18   ar
    32     6    22    1
    33    22    23    1
    34    22    24    1
    35    34    35    1
    36    35    36   am
    37    36    37    2
    38    36    39    1
    39    39    40    1
    40    40    41    1
    41    41    42   ar
    42    42    43   ar
    43    43    44   ar
    44    44    45   ar
    45    31    26   ar
    46    18    14   ar
    47    45    41   ar
    48     2     5    1
    49     7    12    1
    50    35    38    1
@<TRIPOS>MOLECULE
*****
 48 50 0 0 0
SMALL
GASTEIGER

@<TRIPOS>ATOM
      1 C          62.7301   89.1357   11.5496 C.3     1  UNL1        0.0760
      2 N          62.3355   88.7538   10.1537 N.am    1  UNL1       -0.3043
      3 C          60.8955   88.8154    9.7380 C.2     1  UNL1        0.2403
      4 O          59.8502   89.2589   10.7181 O.2     1  UNL1       -0.2733
      5 H          63.0216   88.4627    9.5105 H       1  UNL1        0.1494
      6 C          60.5009   88.4335    8.3421 C.3     1  UNL1        0.1496
      7 N          60.4524   89.4761    7.2646 N.am    1  UNL1       -0.2824
      8 C          59.1500   89.8046    6.5970 C.2     1  UNL1        0.3046
      9 O          57.8960   89.0906    7.0068 O.2     1  UNL1       -0.2526
     10 N          59.1014   90.8471    5.5196 N.am    1  UNL1       -0.2567
     11 C          57.7990   91.1756    4.8520 C.3     1  UNL1        0.1168
     12 H          61.2754   89.9447    6.9957 H       1  UNL1        0.1514
     13 C          60.3553   91.5612    5.1098 C.3     1  UNL1        0.1413
     14 C          60.4705   92.1439    3.7325 C.ar    1  UNL1        0.0858
     15 C          61.7239   92.2279    2.9126 C.ar    1  UNL1        0.0530
     16 S          61.3806   92.8809    1.6066 S.2     1  UNL1       -0.0705
     17 C          59.9151   93.2005    1.6193 C.ar    1  UNL1        0.0875
     18 N          59.3527   92.7451    2.9332 N.ar    1  UNL1       -0.2453
     19 C          59.1468   93.8599    0.5125 C.3     1  UNL1        0.0465
     20 C          58.1145   93.0834   -0.2500 C.3     1  UNL1        0.0069
     21 C          59.4110   95.2957    0.1681 C.3     1  UNL1        0.0069
     22 C          60.1549   87.0092    8.0236 C.3     1  UNL1        0.0270
     23 C          58.7179   86.5924    7.9166 C.3     1  UNL1        0.0022
     24 C          61.2458   86.0017    7.8122 C.3     1  UNL1        0.0022
     25 C          62.7050   90.5757   11.9687 C.3     1  UNL1        0.0459
     26 C          63.9556   91.4007   11.8931 C.ar    1  UNL1       -0.0205
     27 C          64.7697   91.6436   13.1293 C.ar    1  UNL1       -0.0042
     28 C          66.0202   92.4685   13.0536 C.ar    1  UNL1       -0.0003
     29 C          66.4565   93.0505   11.7418 C.ar    1  UNL1       -0.0000
     30 C          65.6424   92.8076   10.5056 C.ar    1  UNL1       -0.0003
     31 C          64.3920   91.9827   10.5813 C.ar    1  UNL1       -0.0042
     32 C          63.1497   88.0774   12.5265 C.3     1  UNL1        0.0216
     33 C          64.0529   88.4291   13.6711 C.3     1  UNL1        0.0214
     34 C          64.0856   87.5618   14.8945 C.3     1  UNL1        0.0748
     35 N          64.5797   86.1487   14.7991 N.am    1  UNL1       -0.2723
     36 C          63.6867   85.0131   15.2031 C.2     1  UNL1        0.4019
     37 O          62.2999   85.2906   15.7025 O.2     1  UNL1       -0.2264
     38 H          65.4900   85.9665   14.4713 H       1  UNL1        0.1527
     39 O          64.1808   83.6000   15.1077 O.3     1  UNL1       -0.4291
     40 C          63.6628   82.6956   14.0289 C.3     1  UNL1        0.2447
     41 C          63.5871   83.1843   12.6128 C.ar    1  UNL1        0.0714
     42 C          62.7780   84.3489   12.1240 C.ar    1  UNL1        0.1053
     43 N          62.9980   84.4785   10.6459 N.ar    1  UNL1       -0.2350
     44 C          63.9433   83.3940   10.2211 C.ar    1  UNL1        0.1343
     45 S          64.3073   82.5941   11.4367 S.2     1  UNL1       -0.0652
     46 C          63.6243   88.1075   16.2134 C.3     1  UNL1        0.0197
     47 C          63.6960   90.6962   16.4220 C.3     1  UNL1        0.0001
     48 C          62.9120   89.4263   16.2715 C.3     1  UNL1        0.0017
@<TRIPOS>BOND
     1    47    48    1
     2    48    46    1
     3    34    46    1
     4    34    33    1
     5    33    32    1
     6     1    32    1
     7     1    25    1
     8    25    26    1
     9    26    27   ar
    10    27    28   ar
    11    28    29   ar
    12    29    30   ar
    13    30    31   ar
    14     1     2    1
    15     2     3   am
    16     3     4    2
    17     3     6    1
    18     6     7    1
    19     7     8   am
    20     8     9    2
    21     8    10   am
    22    10    11    1
    23    10    13    1
    24    13    14    1
    25    14    15   ar
    26    15    16   ar
    27    16    17   ar
    28    17    19    1
    29    19    20    1
    30    19    21    1
    31    17    18   ar
    32     6    22    1
    33    22    23    1
    34    22    24    1
    35    34    35    1
    36    35    36   am
    37    36    37    2
    38    36    39    1
    39    39    40    1
    40    40    41    1
    41    41    42   ar
    42    42    43   ar
    43    43    44   ar
    44    44    45   ar
    45    31    26   ar
    46    18    14   ar
    47    45    41   ar
    48     2     5    1
    49     7    12    1
    50    35    38    1
