@<TRIPOS>MOLECULE
*****
 19 20 0 0 0
SMALL
GASTEIGER

@<TRIPOS>ATOM
      1 N          64.7682   91.6230   12.8789 N.am    1  UNL1       -0.2791
      2 C          66.1773   92.1356   12.8370 C.2     1  UNL1        0.2672
      3 O          67.1505   91.7427   13.9088 O.2     1  UNL1       -0.2682
      4 H          64.1295   91.8809   12.1755 H       1  UNL1        0.1552
      5 C          63.8023   88.3326   14.8765 C.ar    1  UNL1        0.1504
      6 C          64.2382   89.2382   13.7629 C.ar    1  UNL1        0.0524
      7 C          64.3323   90.7175   13.9925 C.ar    1  UNL1        0.0537
      8 C          63.9906   91.2913   15.3356 C.ar    1  UNL1        0.0157
      9 C          63.5547   90.3858   16.4491 C.ar    1  UNL1        0.0157
     10 C          63.4606   88.9065   16.2195 C.ar    1  UNL1        0.0916
     11 CL         63.0247   88.0009   17.3332 Cl      1  UNL1       -0.0791
     12 C          64.8430   85.9583   15.0482 C.3     1  UNL1        0.2525
     13 O          63.7082   86.8533   14.6469 O.3     1  UNL1       -0.4705
     14 C          66.6132   93.0411   11.7235 C.ar    1  UNL1        0.1348
     15 C          67.3221   92.4739   10.5294 C.ar    1  UNL1        0.0238
     16 C          67.7580   93.3795    9.4159 C.ar    1  UNL1        0.0033
     17 C          67.4851   94.8522    9.4964 C.ar    1  UNL1        0.0207
     18 C          66.7762   95.4194   10.6904 C.ar    1  UNL1        0.0990
     19 N          66.3403   94.5140   11.8040 N.ar    1  UNL1       -0.2392
@<TRIPOS>BOND
     1    12    13    1
     2    13     5    1
     3     5     6   ar
     4     6     7   ar
     5     7     1    1
     6     1     2   am
     7     2     3    2
     8     2    14    1
     9    14    15   ar
    10    15    16   ar
    11    16    17   ar
    12    17    18   ar
    13    18    19   ar
    14     7     8   ar
    15     8     9   ar
    16     9    10   ar
    17    10    11    1
    18    10     5   ar
    19    19    14   ar
    20     1     4    1
@<TRIPOS>MOLECULE
*****
 19 20 0 0 0
SMALL
GASTEIGER

@<TRIPOS>ATOM
      1 N          63.6298   90.2002   12.1732 N.am    1  UNL1       -0.2791
      2 C          63.4162   90.3797   13.6470 C.2     1  UNL1        0.2672
      3 O          62.1869   89.8210   14.3003 O.2     1  UNL1       -0.2682
      4 H          64.4366   90.5669   11.7445 H       1  UNL1        0.1552
      5 C          61.4988   87.2300   10.6283 C.ar    1  UNL1        0.1504
      6 C          62.5144   87.9683   11.4488 C.ar    1  UNL1        0.0524
      7 C          62.6140   89.4619   11.3527 C.ar    1  UNL1        0.0537
      8 C          61.6979   90.2172   10.4361 C.ar    1  UNL1        0.0157
      9 C          60.6822   89.4789    9.6156 C.ar    1  UNL1        0.0157
     10 C          60.5827   87.9853    9.7117 C.ar    1  UNL1        0.0916
     11 CL         59.5669   87.2470    8.8911 Cl      1  UNL1       -0.0791
     12 C          62.3743   84.9726   11.5704 C.3     1  UNL1        0.2525
     13 O          61.3992   85.7364   10.7244 O.3     1  UNL1       -0.4705
     14 C          64.4319   91.1180   14.4676 C.ar    1  UNL1        0.1348
     15 C          65.8214   91.3176   13.9391 C.ar    1  UNL1        0.0238
     16 C          66.8371   92.0559   14.7597 C.ar    1  UNL1        0.0033
     17 C          66.4632   92.5945   16.1088 C.ar    1  UNL1        0.0207
     18 C          65.0737   92.3949   16.6373 C.ar    1  UNL1        0.0990
     19 N          64.0580   91.6566   15.8168 N.ar    1  UNL1       -0.2392
@<TRIPOS>BOND
     1    12    13    1
     2    13     5    1
     3     5     6   ar
     4     6     7   ar
     5     7     1    1
     6     1     2   am
     7     2     3    2
     8     2    14    1
     9    14    15   ar
    10    15    16   ar
    11    16    17   ar
    12    17    18   ar
    13    18    19   ar
    14     7     8   ar
    15     8     9   ar
    16     9    10   ar
    17    10    11    1
    18    10     5   ar
    19    19    14   ar
    20     1     4    1
@<TRIPOS>MOLECULE
*****
 19 20 0 0 0
SMALL
GASTEIGER

@<TRIPOS>ATOM
      1 N          62.8804   90.3235   11.3219 N.am    1  UNL1       -0.2791
      2 C          62.5604   88.8587   11.2798 C.2     1  UNL1        0.2672
      3 O          63.1770   87.9272   12.2809 O.2     1  UNL1       -0.2682
      4 H          62.4757   90.9349   10.6649 H       1  UNL1        0.1552
      5 C          65.7239   92.4795   13.0587 C.ar    1  UNL1        0.1504
      6 C          64.7872   91.9462   12.0155 C.ar    1  UNL1        0.0524
      7 C          63.8171   90.8569   12.3651 C.ar    1  UNL1        0.0537
      8 C          63.7836   90.3009   13.7578 C.ar    1  UNL1        0.0157
      9 C          64.7203   90.8342   14.8010 C.ar    1  UNL1        0.0157
     10 C          65.6904   91.9236   14.4514 C.ar    1  UNL1        0.0916
     11 CL         66.6271   92.4569   15.4946 Cl      1  UNL1       -0.0791
     12 C          66.3161   94.6154   11.7033 C.3     1  UNL1        0.2525
     13 O          66.6940   93.5689   12.7091 O.3     1  UNL1       -0.4705
     14 C          61.6237   88.3253   10.2366 C.ar    1  UNL1        0.1348
     15 C          61.5061   86.8457   10.0204 C.ar    1  UNL1        0.0238
     16 C          60.5694   86.3123    8.9771 C.ar    1  UNL1        0.0033
     17 C          59.7504   87.2586    8.1503 C.ar    1  UNL1        0.0207
     18 C          59.8681   88.7383    8.3665 C.ar    1  UNL1        0.0990
     19 N          60.8047   89.2716    9.4097 N.ar    1  UNL1       -0.2392
@<TRIPOS>BOND
     1    12    13    1
     2    13     5    1
     3     5     6   ar
     4     6     7   ar
     5     7     1    1
     6     1     2   am
     7     2     3    2
     8     2    14    1
     9    14    15   ar
    10    15    16   ar
    11    16    17   ar
    12    17    18   ar
    13    18    19   ar
    14     7     8   ar
    15     8     9   ar
    16     9    10   ar
    17    10    11    1
    18    10     5   ar
    19    19    14   ar
    20     1     4    1
@<TRIPOS>MOLECULE
*****
 19 20 0 0 0
SMALL
GASTEIGER

@<TRIPOS>ATOM
      1 N          63.2872   85.5540   12.0953 N.am    1  UNL1       -0.2791
      2 C          62.3545   86.4170   11.2982 C.2     1  UNL1        0.2672
      3 O          61.2709   85.7878   10.4735 O.2     1  UNL1       -0.2682
      4 H          63.9983   85.9669   12.6366 H       1  UNL1        0.1552
      5 C          62.3239   81.8615   13.1851 C.ar    1  UNL1        0.1504
      6 C          62.4748   83.3536   13.2127 C.ar    1  UNL1        0.0524
      7 C          63.1363   84.0618   12.0677 C.ar    1  UNL1        0.0537
      8 C          63.6468   83.2779   10.8952 C.ar    1  UNL1        0.0157
      9 C          63.4959   81.7858   10.8676 C.ar    1  UNL1        0.0157
     10 C          62.8344   81.0776   12.0125 C.ar    1  UNL1        0.0916
     11 CL         62.6836   79.5854   11.9849 Cl      1  UNL1       -0.0791
     12 C          60.2692   80.6190   14.1773 C.3     1  UNL1        0.2525
     13 O          61.6625   81.1532   14.3300 O.3     1  UNL1       -0.4705
     14 C          62.5053   87.9091   11.3258 C.ar    1  UNL1        0.1348
     15 C          62.0887   88.7271   10.1396 C.ar    1  UNL1        0.0238
     16 C          62.2396   90.2193   10.1672 C.ar    1  UNL1        0.0033
     17 C          62.8070   90.8934   11.3811 C.ar    1  UNL1        0.0207
     18 C          63.2237   90.0754   12.5674 C.ar    1  UNL1        0.0990
     19 N          63.0728   88.5833   12.5398 N.ar    1  UNL1       -0.2392
@<TRIPOS>BOND
     1    12    13    1
     2    13     5    1
     3     5     6   ar
     4     6     7   ar
     5     7     1    1
     6     1     2   am
     7     2     3    2
     8     2    14    1
     9    14    15   ar
    10    15    16   ar
    11    16    17   ar
    12    17    18   ar
    13    18    19   ar
    14     7     8   ar
    15     8     9   ar
    16     9    10   ar
    17    10    11    1
    18    10     5   ar
    19    19    14   ar
    20     1     4    1
@<TRIPOS>MOLECULE
*****
 19 20 0 0 0
SMALL
GASTEIGER

@<TRIPOS>ATOM
      1 N          62.5133   90.1324   11.2588 N.am    1  UNL1       -0.2791
      2 C          62.2849   88.6588   11.0963 C.2     1  UNL1        0.2672
      3 O          62.9223   87.6915   12.0493 O.2     1  UNL1       -0.2682
      4 H          62.0950   90.7673   10.6333 H       1  UNL1        0.1552
      5 C          63.9138   90.8001   14.9115 C.ar    1  UNL1        0.1504
      6 C          63.0482   90.2938   13.7961 C.ar    1  UNL1        0.0524
      7 C          63.3790   90.6387   12.3742 C.ar    1  UNL1        0.0537
      8 C          64.5756   91.4898   12.0679 C.ar    1  UNL1        0.0157
      9 C          65.4412   91.9960   13.1833 C.ar    1  UNL1        0.0157
     10 C          65.1104   91.6512   14.6052 C.ar    1  UNL1        0.0916
     11 CL         65.9761   92.1574   15.7207 Cl      1  UNL1       -0.0791
     12 C          63.0710   89.0870   16.6736 C.3     1  UNL1        0.2525
     13 O          63.5830   90.4552   16.3334 O.3     1  UNL1       -0.4705
     14 C          61.4192   88.1525    9.9809 C.ar    1  UNL1        0.1348
     15 C          61.4102   86.6912    9.6426 C.ar    1  UNL1        0.0238
     16 C          60.5444   86.1849    8.5271 C.ar    1  UNL1        0.0033
     17 C          59.6878   87.1399    7.7500 C.ar    1  UNL1        0.0207
     18 C          59.6968   88.6013    8.0882 C.ar    1  UNL1        0.0990
     19 N          60.5625   89.1076    9.2036 N.ar    1  UNL1       -0.2392
@<TRIPOS>BOND
     1    12    13    1
     2    13     5    1
     3     5     6   ar
     4     6     7   ar
     5     7     1    1
     6     1     2   am
     7     2     3    2
     8     2    14    1
     9    14    15   ar
    10    15    16   ar
    11    16    17   ar
    12    17    18   ar
    13    18    19   ar
    14     7     8   ar
    15     8     9   ar
    16     9    10   ar
    17    10    11    1
    18    10     5   ar
    19    19    14   ar
    20     1     4    1
@<TRIPOS>MOLECULE
*****
 19 20 0 0 0
SMALL
GASTEIGER

@<TRIPOS>ATOM
      1 N          63.5501   85.2793   14.9243 N.am    1  UNL1       -0.2791
      2 C          62.9356   84.8466   13.6261 C.2     1  UNL1        0.2672
      3 O          62.3708   85.8698   12.6858 O.2     1  UNL1       -0.2682
      4 H          63.9208   84.6077   15.5414 H       1  UNL1        0.1552
      5 C          64.2128   89.1837   14.6669 C.ar    1  UNL1        0.1504
      6 C          64.1632   87.7279   14.3091 C.ar    1  UNL1        0.0524
      7 C          63.5997   86.7351   15.2822 C.ar    1  UNL1        0.0537
      8 C          63.0857   87.1982   16.6131 C.ar    1  UNL1        0.0157
      9 C          63.1353   88.6540   16.9709 C.ar    1  UNL1        0.0157
     10 C          63.6989   89.6468   15.9978 C.ar    1  UNL1        0.0916
     11 CL         63.7485   91.1027   16.3557 Cl      1  UNL1       -0.0791
     12 C          63.8695   90.8734   12.7235 C.3     1  UNL1        0.2525
     13 O          64.7764   90.1764   13.6938 O.3     1  UNL1       -0.4705
     14 C          62.8860   83.3908   13.2682 C.ar    1  UNL1        0.1348
     15 C          62.4623   82.3805   14.2928 C.ar    1  UNL1        0.0238
     16 C          62.4127   80.9247   13.9348 C.ar    1  UNL1        0.0033
     17 C          62.7868   80.4791   12.5523 C.ar    1  UNL1        0.0207
     18 C          63.2106   81.4894   11.5276 C.ar    1  UNL1        0.0990
     19 N          63.2602   82.9452   11.8856 N.ar    1  UNL1       -0.2392
@<TRIPOS>BOND
     1    12    13    1
     2    13     5    1
     3     5     6   ar
     4     6     7   ar
     5     7     1    1
     6     1     2   am
     7     2     3    2
     8     2    14    1
     9    14    15   ar
    10    15    16   ar
    11    16    17   ar
    12    17    18   ar
    13    18    19   ar
    14     7     8   ar
    15     8     9   ar
    16     9    10   ar
    17    10    11    1
    18    10     5   ar
    19    19    14   ar
    20     1     4    1
@<TRIPOS>MOLECULE
*****
 19 20 0 0 0
SMALL
GASTEIGER

@<TRIPOS>ATOM
      1 N          63.8310   86.3661   14.0383 N.am    1  UNL1       -0.2791
      2 C          63.3556   87.3889   13.0495 C.2     1  UNL1        0.2672
      3 O          62.4511   86.9809   11.9245 O.2     1  UNL1       -0.2682
      4 H          64.4246   86.6339   14.7767 H       1  UNL1        0.1552
      5 C          63.3419   82.7242   12.5391 C.ar    1  UNL1        0.1504
      6 C          63.7709   84.1551   12.6753 C.ar    1  UNL1        0.0524
      7 C          63.4019   84.9352   13.9022 C.ar    1  UNL1        0.0537
      8 C          62.6039   84.2844   14.9929 C.ar    1  UNL1        0.0157
      9 C          62.1749   82.8536   14.8567 C.ar    1  UNL1        0.0157
     10 C          62.5438   82.0735   13.6297 C.ar    1  UNL1        0.0916
     11 CL         62.1148   80.6426   13.4936 Cl      1  UNL1       -0.0791
     12 C          64.2156   82.6578   10.0932 C.3     1  UNL1        0.2525
     13 O          63.7109   81.9441   11.3122 O.3     1  UNL1       -0.4705
     14 C          63.7846   88.8198   13.1857 C.ar    1  UNL1        0.1348
     15 C          64.5552   89.2599   14.3950 C.ar    1  UNL1        0.0238
     16 C          64.9842   90.6909   14.5311 C.ar    1  UNL1        0.0033
     17 C          64.6426   91.6816   13.4579 C.ar    1  UNL1        0.0207
     18 C          63.8720   91.2414   12.2486 C.ar    1  UNL1        0.0990
     19 N          63.4430   89.8106   12.1124 N.ar    1  UNL1       -0.2392
@<TRIPOS>BOND
     1    12    13    1
     2    13     5    1
     3     5     6   ar
     4     6     7   ar
     5     7     1    1
     6     1     2   am
     7     2     3    2
     8     2    14    1
     9    14    15   ar
    10    15    16   ar
    11    16    17   ar
    12    17    18   ar
    13    18    19   ar
    14     7     8   ar
    15     8     9   ar
    16     9    10   ar
    17    10    11    1
    18    10     5   ar
    19    19    14   ar
    20     1     4    1
@<TRIPOS>MOLECULE
*****
 19 20 0 0 0
SMALL
GASTEIGER

@<TRIPOS>ATOM
      1 N          62.3744   85.6659   12.4207 N.am    1  UNL1       -0.2791
      2 C          62.7980   84.4581   11.6386 C.2     1  UNL1        0.2672
      3 O          63.3380   84.6165   10.2481 O.2     1  UNL1       -0.2682
      4 H          62.0200   85.5619   13.3333 H       1  UNL1        0.1552
      5 C          63.2864   89.5009   11.9613 C.ar    1  UNL1        0.1504
      6 C          63.1699   88.1347   12.5695 C.ar    1  UNL1        0.0524
      7 C          62.4909   87.0321   11.8125 C.ar    1  UNL1        0.0537
      8 C          61.9284   87.2956   10.4472 C.ar    1  UNL1        0.0157
      9 C          62.0449   88.6618    9.8389 C.ar    1  UNL1        0.0157
     10 C          62.7239   89.7644   10.5960 C.ar    1  UNL1        0.0916
     11 CL         62.8404   91.1307    9.9877 Cl      1  UNL1       -0.0791
     12 C          64.6663   90.3050   14.0105 C.3     1  UNL1        0.2525
     13 O          63.9654   90.6035   12.7184 O.3     1  UNL1       -0.4705
     14 C          62.6815   83.0919   12.2468 C.ar    1  UNL1        0.1348
     15 C          62.9841   81.8757   11.4226 C.ar    1  UNL1        0.0238
     16 C          62.8676   80.5095   12.0309 C.ar    1  UNL1        0.0033
     17 C          62.4486   80.3595   13.4633 C.ar    1  UNL1        0.0207
     18 C          62.1460   81.5757   14.2875 C.ar    1  UNL1        0.0990
     19 N          62.2625   82.9419   13.6793 N.ar    1  UNL1       -0.2392
@<TRIPOS>BOND
     1    12    13    1
     2    13     5    1
     3     5     6   ar
     4     6     7   ar
     5     7     1    1
     6     1     2   am
     7     2     3    2
     8     2    14    1
     9    14    15   ar
    10    15    16   ar
    11    16    17   ar
    12    17    18   ar
    13    18    19   ar
    14     7     8   ar
    15     8     9   ar
    16     9    10   ar
    17    10    11    1
    18    10     5   ar
    19    19    14   ar
    20     1     4    1
@<TRIPOS>MOLECULE
*****
 19 20 0 0 0
SMALL
GASTEIGER

@<TRIPOS>ATOM
      1 N          63.0286   89.7349   10.7024 N.am    1  UNL1       -0.2791
      2 C          62.8940   90.0444   12.1639 C.2     1  UNL1        0.2672
      3 O          61.7047   89.5452   12.9298 O.2     1  UNL1       -0.2682
      4 H          63.8092   90.0624   10.1997 H       1  UNL1        0.1552
      5 C          59.9545   88.7874    8.3781 C.ar    1  UNL1        0.1504
      6 C          61.0091   89.5960    9.0738 C.ar    1  UNL1        0.0524
      7 C          61.9740   88.9262   10.0067 C.ar    1  UNL1        0.0537
      8 C          61.8843   87.4478   10.2440 C.ar    1  UNL1        0.0157
      9 C          60.8297   86.6393    9.5484 C.ar    1  UNL1        0.0157
     10 C          59.8648   87.3091    8.6154 C.ar    1  UNL1        0.0916
     11 CL         58.8102   86.5004    7.9197 Cl      1  UNL1       -0.0791
     12 C          59.4321   89.8573    6.0689 C.3     1  UNL1        0.2525
     13 O          58.9896   89.4572    7.4452 O.3     1  UNL1       -0.4705
     14 C          63.9485   90.8530   12.8596 C.ar    1  UNL1        0.1348
     15 C          64.2637   90.5917   14.3026 C.ar    1  UNL1        0.0238
     16 C          65.3184   91.4003   14.9983 C.ar    1  UNL1        0.0033
     17 C          66.0577   92.4703   14.2509 C.ar    1  UNL1        0.0207
     18 C          65.7425   92.7316   12.8079 C.ar    1  UNL1        0.0990
     19 N          64.6879   91.9230   12.1122 N.ar    1  UNL1       -0.2392
@<TRIPOS>BOND
     1    12    13    1
     2    13     5    1
     3     5     6   ar
     4     6     7   ar
     5     7     1    1
     6     1     2   am
     7     2     3    2
     8     2    14    1
     9    14    15   ar
    10    15    16   ar
    11    16    17   ar
    12    17    18   ar
    13    18    19   ar
    14     7     8   ar
    15     8     9   ar
    16     9    10   ar
    17    10    11    1
    18    10     5   ar
    19    19    14   ar
    20     1     4    1
