@<TRIPOS>MOLECULE
*****
 38 41 0 0 0
SMALL
GASTEIGER

@<TRIPOS>ATOM
      1 C          61.9206   87.6647   10.5427 C.3     1  UNL1        0.0803
      2 C          63.2788   87.2376   12.7159 C.ar    1  UNL1        0.2211
      3 N          63.7991   86.2925   13.7580 N.ar    1  UNL1       -0.2119
      4 C          63.4813   84.8292   13.6691 C.ar    1  UNL1        0.0844
      5 C          64.0015   83.8840   14.7113 C.ar    1  UNL1        0.0197
      6 C          63.6837   82.4208   14.6223 C.ar    1  UNL1        0.0082
      7 C          62.8456   81.9027   13.4913 C.ar    1  UNL1        0.0347
      8 BR         62.5278   80.4394   13.4024 Br      1  UNL1       -0.0490
      9 C          62.3254   82.8478   12.4492 C.ar    1  UNL1        0.0082
     10 C          62.6432   84.3111   12.5381 C.ar    1  UNL1        0.0181
     11 C          62.1230   85.2563   11.4959 C.ar    1  UNL1        0.0023
     12 C          62.4408   86.7195   11.5848 C.ar    1  UNL1        0.0374
     13 C          64.0689   88.9038   14.0531 C.3     1  UNL1        0.2542
     14 O          63.5967   88.7009   12.8048 O.3     1  UNL1       -0.4563
     15 C          61.0696   87.1489    9.4202 C.ar    1  UNL1        0.0160
     16 C          59.6490   87.6106    9.2829 C.ar    1  UNL1        0.0005
     17 C          58.7980   87.0949    8.1604 C.ar    1  UNL1        0.0205
     18 C          59.3677   86.1175    7.1753 C.ar    1  UNL1        0.1003
     19 N          60.7882   85.6559    7.3127 N.ar    1  UNL1       -0.2295
     20 C          61.6392   86.1716    8.4352 C.ar    1  UNL1        0.1281
     21 N          63.0597   85.7100    8.5726 N.pl3   1  UNL1       -0.2900
     22 C          63.3530   84.2985    8.9870 C.3     1  UNL1        0.1136
     23 C          63.9634   86.3012    8.4005 C.3     1  UNL1        0.1136
     24 C          62.2513   89.1255   10.6230 C.3     1  UNL1        0.1160
     25 O          63.2518   89.0598   10.1866 O.3     1  UNL1       -0.3820
     26 H          63.4472   88.1363    9.9635 H       1  UNL1        0.2107
     27 C          60.9092   89.3957   11.2359 C.ar    1  UNL1        0.0046
     28 C          60.2592   88.3598   12.1046 C.ar    1  UNL1       -0.0019
     29 C          58.9171   88.6300   12.7175 C.ar    1  UNL1        0.0021
     30 C          58.2249   89.9359   12.4618 C.ar    1  UNL1        0.0296
     31 C          58.8749   90.9718   11.5932 C.ar    1  UNL1        0.1399
     32 F          58.3701   91.5884   11.5714 F       1  UNL1       -0.2042
     33 C          60.2171   90.7016   10.9802 C.ar    1  UNL1        0.0276
     34 C          62.5820   90.5864   10.7033 C.3     1  UNL1        0.0491
     35 C          63.8929   91.0888   10.1749 C.3     1  UNL1        0.0750
     36 N          64.7566   91.9707   11.0270 N.3     1  UNL1       -0.2702
     37 C          65.7418   92.9019   10.3849 C.3     1  UNL1        0.0897
     38 C          64.6352   91.9215   12.5213 C.3     1  UNL1        0.0897
@<TRIPOS>BOND
     1    13    14    1
     2    14     2    1
     3     2     3   ar
     4     3     4   ar
     5     4     5   ar
     6     5     6   ar
     7     6     7   ar
     8     7     8    1
     9     7     9   ar
    10     9    10   ar
    11    10    11   ar
    12    11    12   ar
    13     1    12    1
    14     1    15    1
    15    15    16   ar
    16    16    17   ar
    17    17    18   ar
    18    18    19   ar
    19    19    20   ar
    20    20    21    1
    21    21    22    1
    22    21    23    1
    23     1    24    1
    24    24    25    1
    25    24    34    1
    26    34    35    1
    27    35    36    1
    28    36    37    1
    29    36    38    1
    30    24    27    1
    31    27    28   ar
    32    28    29   ar
    33    29    30   ar
    34    30    31   ar
    35    31    32    1
    36    31    33   ar
    37    12     2   ar
    38    20    15   ar
    39    33    27   ar
    40    10     4   ar
    41    25    26    1
@<TRIPOS>MOLECULE
*****
 38 41 0 0 0
SMALL
GASTEIGER

@<TRIPOS>ATOM
      1 C          61.0924   94.0151   -1.9767 C.3     1  UNL1        0.0803
      2 C          59.7043   94.5497   -4.1069 C.ar    1  UNL1        0.2211
      3 N          58.5426   94.2539   -5.0085 N.ar    1  UNL1       -0.2119
      4 C          57.6072   93.1278   -4.6816 C.ar    1  UNL1        0.0844
      5 C          56.4455   92.8320   -5.5832 C.ar    1  UNL1        0.0197
      6 C          55.5102   91.7059   -5.2563 C.ar    1  UNL1        0.0082
      7 C          55.7365   90.8755   -4.0278 C.ar    1  UNL1        0.0347
      8 BR         54.8011   89.7493   -3.7009 Br      1  UNL1       -0.0490
      9 C          56.8982   91.1713   -3.1262 C.ar    1  UNL1        0.0082
     10 C          57.8335   92.2974   -3.4531 C.ar    1  UNL1        0.0181
     11 C          58.9953   92.5932   -2.5515 C.ar    1  UNL1        0.0023
     12 C          59.9307   93.7193   -2.8784 C.ar    1  UNL1        0.0374
     13 C          60.1296   96.2770   -5.5297 C.3     1  UNL1        0.2542
     14 O          60.6398   95.6759   -4.4338 O.3     1  UNL1       -0.4563
     15 C          60.8826   94.8011   -0.7165 C.ar    1  UNL1        0.0160
     16 C          59.9060   94.3182    0.3147 C.ar    1  UNL1        0.0005
     17 C          59.6962   95.1042    1.5750 C.ar    1  UNL1        0.0205
     18 C          60.4629   96.3730    1.8041 C.ar    1  UNL1        0.1003
     19 N          61.4394   96.8557    0.7729 N.ar    1  UNL1       -0.2295
     20 C          61.6493   96.0698   -0.4874 C.ar    1  UNL1        0.1281
     21 N          62.6258   96.5526   -1.5185 N.pl3   1  UNL1       -0.2900
     22 C          64.0833   96.6577   -1.1800 C.3     1  UNL1        0.1136
     23 C          62.4027   96.8560   -2.5451 C.3     1  UNL1        0.1136
     24 C          62.4640   93.5250   -2.3354 C.3     1  UNL1        0.1160
     25 O          62.4167   93.7650   -3.4012 O.3     1  UNL1       -0.3820
     26 H          61.5554   94.1616   -3.6055 H       1  UNL1        0.2107
     27 C          62.6976   93.1332   -0.9064 C.ar    1  UNL1        0.0046
     28 C          61.7115   92.2510   -0.1998 C.ar    1  UNL1       -0.0019
     29 C          61.9451   91.8592    1.2292 C.ar    1  UNL1        0.0021
     30 C          63.1649   92.3496    1.9515 C.ar    1  UNL1        0.0296
     31 C          64.1510   93.2318    1.2449 C.ar    1  UNL1        0.1399
     32 F          64.7241   93.3900    1.7759 F       1  UNL1       -0.2042
     33 C          63.9174   93.6236   -0.1841 C.ar    1  UNL1        0.0276
     34 C          63.8355   93.0349   -2.6940 C.3     1  UNL1        0.0491
     35 C          64.0570   92.3043   -3.9852 C.3     1  UNL1        0.0750
     36 N          64.7739   92.9805   -5.1161 N.3     1  UNL1       -0.2702
     37 C          64.9646   94.4683   -5.1004 C.3     1  UNL1        0.0897
     38 C          65.2999   92.1691   -6.2627 C.3     1  UNL1        0.0897
@<TRIPOS>BOND
     1    13    14    1
     2    14     2    1
     3     2     3   ar
     4     3     4   ar
     5     4     5   ar
     6     5     6   ar
     7     6     7   ar
     8     7     8    1
     9     7     9   ar
    10     9    10   ar
    11    10    11   ar
    12    11    12   ar
    13     1    12    1
    14     1    15    1
    15    15    16   ar
    16    16    17   ar
    17    17    18   ar
    18    18    19   ar
    19    19    20   ar
    20    20    21    1
    21    21    22    1
    22    21    23    1
    23     1    24    1
    24    24    25    1
    25    24    34    1
    26    34    35    1
    27    35    36    1
    28    36    37    1
    29    36    38    1
    30    24    27    1
    31    27    28   ar
    32    28    29   ar
    33    29    30   ar
    34    30    31   ar
    35    31    32    1
    36    31    33   ar
    37    12     2   ar
    38    20    15   ar
    39    33    27   ar
    40    10     4   ar
    41    25    26    1
@<TRIPOS>MOLECULE
*****
 38 41 0 0 0
SMALL
GASTEIGER

@<TRIPOS>ATOM
      1 C          60.8277   94.3362   -2.2813 C.3     1  UNL1        0.0803
      2 C          59.2516   95.5688   -3.9387 C.ar    1  UNL1        0.2211
      3 N          58.0841   95.5482   -4.8801 N.ar    1  UNL1       -0.2119
      4 C          57.3249   94.2743   -5.1058 C.ar    1  UNL1        0.0844
      5 C          56.1573   94.2537   -6.0472 C.ar    1  UNL1        0.0197
      6 C          55.3982   92.9798   -6.2728 C.ar    1  UNL1        0.0082
      7 C          55.8067   91.7265   -5.5569 C.ar    1  UNL1        0.0347
      8 BR         55.0475   90.4526   -5.7825 Br      1  UNL1       -0.0490
      9 C          56.9742   91.7471   -4.6154 C.ar    1  UNL1        0.0082
     10 C          57.7333   93.0210   -4.3899 C.ar    1  UNL1        0.0181
     11 C          58.9009   93.0417   -3.4484 C.ar    1  UNL1        0.0023
     12 C          59.6600   94.3155   -3.2228 C.ar    1  UNL1        0.0374
     13 C          61.0236   96.8353   -4.6057 C.3     1  UNL1        0.2542
     14 O          60.0108   96.8427   -3.7131 O.3     1  UNL1       -0.4563
     15 C          60.7747   95.1754   -1.0392 C.ar    1  UNL1        0.0160
     16 C          61.9547   96.0166   -0.6516 C.ar    1  UNL1        0.0005
     17 C          61.9017   96.8558    0.5906 C.ar    1  UNL1        0.0205
     18 C          60.6689   96.8538    1.4451 C.ar    1  UNL1        0.1003
     19 N          59.4890   96.0127    1.0575 N.ar    1  UNL1       -0.2295
     20 C          59.5420   95.1734   -0.1847 C.ar    1  UNL1        0.1281
     21 N          58.3621   94.3323   -0.5723 N.pl3   1  UNL1       -0.2900
     22 C          57.1731   94.9663   -1.2315 C.3     1  UNL1        0.1136
     23 C          58.2471   93.2543   -0.4296 C.3     1  UNL1        0.1136
     24 C          62.0481   93.5176   -2.5820 C.3     1  UNL1        0.1160
     25 O          62.1044   93.7494   -3.6492 O.3     1  UNL1       -0.3820
     26 H          61.3771   94.3445   -3.8896 H       1  UNL1        0.2107
     27 C          62.1202   93.0969   -1.1441 C.ar    1  UNL1        0.0046
     28 C          61.0765   92.1805   -0.5775 C.ar    1  UNL1       -0.0019
     29 C          61.1485   91.7597    0.8604 C.ar    1  UNL1        0.0021
     30 C          62.2643   92.2554    1.7319 C.ar    1  UNL1        0.0296
     31 C          63.3079   93.1717    1.1654 C.ar    1  UNL1        0.1399
     32 F          63.8111   93.3280    1.7637 F       1  UNL1       -0.2042
     33 C          63.2359   93.5925   -0.2726 C.ar    1  UNL1        0.0276
     34 C          63.2686   92.6991   -2.8827 C.3     1  UNL1        0.0491
     35 C          64.4521   93.3345   -3.5501 C.3     1  UNL1        0.0750
     36 N          64.5496   93.3512   -5.0469 N.3     1  UNL1       -0.2702
     37 C          64.7547   94.6490   -5.7706 C.3     1  UNL1        0.0897
     38 C          64.4419   92.0703   -5.8198 C.3     1  UNL1        0.0897
@<TRIPOS>BOND
     1    13    14    1
     2    14     2    1
     3     2     3   ar
     4     3     4   ar
     5     4     5   ar
     6     5     6   ar
     7     6     7   ar
     8     7     8    1
     9     7     9   ar
    10     9    10   ar
    11    10    11   ar
    12    11    12   ar
    13     1    12    1
    14     1    15    1
    15    15    16   ar
    16    16    17   ar
    17    17    18   ar
    18    18    19   ar
    19    19    20   ar
    20    20    21    1
    21    21    22    1
    22    21    23    1
    23     1    24    1
    24    24    25    1
    25    24    34    1
    26    34    35    1
    27    35    36    1
    28    36    37    1
    29    36    38    1
    30    24    27    1
    31    27    28   ar
    32    28    29   ar
    33    29    30   ar
    34    30    31   ar
    35    31    32    1
    36    31    33   ar
    37    12     2   ar
    38    20    15   ar
    39    33    27   ar
    40    10     4   ar
    41    25    26    1
