@<TRIPOS>MOLECULE
*****
 25 28 0 0 0
SMALL
GASTEIGER

@<TRIPOS>ATOM
      1 C          64.0830   87.6036   14.3926 C.2     1  UNL1        0.1204
      2 C          63.6745   87.3578   15.8148 C.2     1  UNL1        0.0299
      3 C          63.1636   86.0087   16.2258 C.2     1  UNL1       -0.0018
      4 C          62.7551   85.7627   17.6479 C.3     1  UNL1        0.0327
      5 C          63.0613   84.9054   15.2145 C.ar    1  UNL1        0.0754
      6 N          62.5503   83.5563   15.6255 N.ar    1  UNL1       -0.2257
      7 C          62.4480   82.4532   14.6143 C.ar    1  UNL1        0.1846
      8 N          61.9850   81.0307   14.7242 N.2     1  UNL1       -0.1288
      9 N          62.1074   80.3975   13.3700 N.2     1  UNL1       -0.1508
     10 C          62.6460   81.4286   12.4231 C.2     1  UNL1        0.0837
     11 C          62.9251   81.2250   10.9634 C.3     1  UNL1        0.0541
     12 C          62.8565   82.6991   13.1921 C.ar    1  UNL1        0.0515
     13 C          63.3674   84.0482   12.7812 C.ar    1  UNL1        0.0162
     14 C          63.4698   85.1514   13.7924 C.ar    1  UNL1        0.0018
     15 C          63.9807   86.5005   13.3813 C.3     1  UNL1        0.0914
     16 C          63.6405   89.9922   13.4710 C.3     1  UNL1        0.2520
     17 O          64.5939   88.9527   13.9816 O.2     1  UNL1       -0.4754
     18 C          63.7759   84.2942   11.3590 C.3     1  UNL1        0.2056
     19 F          65.1195   83.8356   10.8745 F       1  UNL1       -0.2275
     20 C          62.8409   84.9987   10.4212 C.ar    1  UNL1        0.0172
     21 C          63.0746   84.9351    8.9409 C.ar    1  UNL1        0.0194
     22 C          62.1395   85.6396    8.0031 C.ar    1  UNL1        0.0987
     23 N          60.9710   86.4077    8.5456 N.ar    1  UNL1       -0.2423
     24 C          60.7374   86.4713   10.0260 C.ar    1  UNL1        0.0987
     25 C          61.6723   85.7668   10.9638 C.ar    1  UNL1        0.0194
@<TRIPOS>BOND
     1    16    17    1
     2    17     1    1
     3     1     2    2
     4     2     3    1
     5     3     4    1
     6     3     5    2
     7     5     6   ar
     8     6     7   ar
     9     7     8    1
    10     8     9    2
    11     9    10    1
    12    10    11    1
    13    10    12    2
    14    12    13   ar
    15    13    18    1
    16    18    19    1
    17    18    20    1
    18    20    21   ar
    19    21    22   ar
    20    22    23   ar
    21    23    24   ar
    22    24    25   ar
    23    13    14   ar
    24    14    15    1
    25    15     1    1
    26    14     5   ar
    27    12     7   ar
    28    25    20   ar
@<TRIPOS>MOLECULE
*****
 25 28 0 0 0
SMALL
GASTEIGER

@<TRIPOS>ATOM
      1 C          62.6901   83.5778   12.5459 C.2     1  UNL1        0.1204
      2 C          63.6779   83.8933   13.6298 C.2     1  UNL1        0.0299
      3 C          64.0776   85.3156   13.8893 C.2     1  UNL1       -0.0018
      4 C          65.0655   85.6312   14.9731 C.3     1  UNL1        0.0327
      5 C          63.4895   86.4224   13.0650 C.ar    1  UNL1        0.0754
      6 N          63.8893   87.8447   13.3247 N.ar    1  UNL1       -0.2257
      7 C          63.3012   88.9513   12.5004 C.ar    1  UNL1        0.1846
      8 N          63.5030   90.4375   12.5253 N.2     1  UNL1       -0.1288
      9 N          62.6399   91.0404   11.4569 N.2     1  UNL1       -0.1508
     10 C          61.9046   89.9269   10.7717 C.2     1  UNL1        0.0837
     11 C          60.9316   90.0780    9.6402 C.3     1  UNL1        0.0541
     12 C          62.3133   88.6357   11.4166 C.ar    1  UNL1        0.0515
     13 C          61.9136   87.2135   11.1571 C.ar    1  UNL1        0.0162
     14 C          62.5017   86.1068   11.9813 C.ar    1  UNL1        0.0018
     15 C          62.1020   84.6845   11.7217 C.3     1  UNL1        0.0914
     16 C          61.9166   81.2607   13.4308 C.3     1  UNL1        0.2520
     17 O          62.2904   82.1556   12.2864 O.2     1  UNL1       -0.4754
     18 C          60.9258   86.8979   10.0733 C.3     1  UNL1        0.2056
     19 F          59.4995   87.3433   10.2055 F       1  UNL1       -0.2275
     20 C          61.3642   86.1369    8.8572 C.ar    1  UNL1        0.0172
     21 C          60.3778   85.8267    7.7707 C.ar    1  UNL1        0.0194
     22 C          60.8162   85.0657    6.5546 C.ar    1  UNL1        0.0987
     23 N          62.2410   84.6150    6.4252 N.ar    1  UNL1       -0.2423
     24 C          63.2275   84.9253    7.5119 C.ar    1  UNL1        0.0987
     25 C          62.7891   85.6862    8.7279 C.ar    1  UNL1        0.0194
@<TRIPOS>BOND
     1    16    17    1
     2    17     1    1
     3     1     2    2
     4     2     3    1
     5     3     4    1
     6     3     5    2
     7     5     6   ar
     8     6     7   ar
     9     7     8    1
    10     8     9    2
    11     9    10    1
    12    10    11    1
    13    10    12    2
    14    12    13   ar
    15    13    18    1
    16    18    19    1
    17    18    20    1
    18    20    21   ar
    19    21    22   ar
    20    22    23   ar
    21    23    24   ar
    22    24    25   ar
    23    13    14   ar
    24    14    15    1
    25    15     1    1
    26    14     5   ar
    27    12     7   ar
    28    25    20   ar
@<TRIPOS>MOLECULE
*****
 25 28 0 0 0
SMALL
GASTEIGER

@<TRIPOS>ATOM
      1 C          63.9121   85.6125   13.6568 C.2     1  UNL1        0.1204
      2 C          64.0633   84.3070   12.9336 C.2     1  UNL1        0.0299
      3 C          63.4400   84.1219   11.5818 C.2     1  UNL1       -0.0018
      4 C          63.5911   82.8165   10.8586 C.3     1  UNL1        0.0327
      5 C          62.6656   85.2424   10.9532 C.ar    1  UNL1        0.0754
      6 N          62.0424   85.0573    9.6014 N.ar    1  UNL1       -0.2257
      7 C          61.2681   86.1777    8.9728 C.ar    1  UNL1        0.1846
      8 N          60.5474   86.2879    7.6619 N.2     1  UNL1       -0.1288
      9 N          59.9509   87.6614    7.5750 N.2     1  UNL1       -0.1508
     10 C          60.3029   88.4001    8.8321 C.2     1  UNL1        0.0837
     11 C          59.9098   89.8085    9.1666 C.3     1  UNL1        0.0541
     12 C          61.1170   87.4831    9.6960 C.ar    1  UNL1        0.0515
     13 C          61.7402   87.6682   11.0478 C.ar    1  UNL1        0.0162
     14 C          62.5145   86.5478   11.6764 C.ar    1  UNL1        0.0018
     15 C          63.1378   86.7329   13.0282 C.3     1  UNL1        0.0914
     16 C          63.6779   85.7749   16.2392 C.3     1  UNL1        0.2520
     17 O          64.5353   85.7975   15.0086 O.2     1  UNL1       -0.4754
     18 C          61.5891   88.9736   11.7711 C.3     1  UNL1        0.2056
     19 F          60.3252   89.2735   12.5213 F       1  UNL1       -0.2275
     20 C          62.7019   89.9791   11.7441 C.ar    1  UNL1        0.0172
     21 C          63.4937   90.2549   12.9878 C.ar    1  UNL1        0.0194
     22 C          64.6065   91.2605   12.9608 C.ar    1  UNL1        0.0987
     23 N          64.9273   91.9902   11.6902 N.ar    1  UNL1       -0.2423
     24 C          64.1354   91.7143   10.4464 C.ar    1  UNL1        0.0987
     25 C          63.0227   90.7088   10.4734 C.ar    1  UNL1        0.0194
@<TRIPOS>BOND
     1    16    17    1
     2    17     1    1
     3     1     2    2
     4     2     3    1
     5     3     4    1
     6     3     5    2
     7     5     6   ar
     8     6     7   ar
     9     7     8    1
    10     8     9    2
    11     9    10    1
    12    10    11    1
    13    10    12    2
    14    12    13   ar
    15    13    18    1
    16    18    19    1
    17    18    20    1
    18    20    21   ar
    19    21    22   ar
    20    22    23   ar
    21    23    24   ar
    22    24    25   ar
    23    13    14   ar
    24    14    15    1
    25    15     1    1
    26    14     5   ar
    27    12     7   ar
    28    25    20   ar
@<TRIPOS>MOLECULE
*****
 25 28 0 0 0
SMALL
GASTEIGER

@<TRIPOS>ATOM
      1 C          61.0179   85.9722    8.3599 C.2     1  UNL1        0.1204
      2 C          60.6127   87.3984    8.5874 C.2     1  UNL1        0.0299
      3 C          61.0653   88.1187    9.8228 C.2     1  UNL1       -0.0018
      4 C          60.6602   89.5449   10.0504 C.3     1  UNL1        0.0327
      5 C          61.9231   87.4127   10.8308 C.ar    1  UNL1        0.0754
      6 N          62.3757   88.1330   12.0663 N.ar    1  UNL1       -0.2257
      7 C          63.2335   87.4270   13.0742 C.ar    1  UNL1        0.1846
      8 N          63.8278   87.8757   14.3763 N.2     1  UNL1       -0.1288
      9 N          64.6002   86.7267   14.9535 N.2     1  UNL1       -0.1508
     10 C          64.4833   85.5680   14.0081 C.2     1  UNL1        0.0837
     11 C          65.1024   84.2141   14.1920 C.3     1  UNL1        0.0541
     12 C          63.6386   86.0008   12.8466 C.ar    1  UNL1        0.0515
     13 C          63.1860   85.2806   11.6112 C.ar    1  UNL1        0.0162
     14 C          62.3282   85.9865   10.6033 C.ar    1  UNL1        0.0018
     15 C          61.8756   85.2662    9.3678 C.3     1  UNL1        0.0914
     16 C          61.5668   84.5491    6.2566 C.3     1  UNL1        0.2520
     17 O          60.5653   85.2519    7.1244 O.2     1  UNL1       -0.4754
     18 C          63.5911   83.8544   11.3836 C.3     1  UNL1        0.2056
     19 F          64.6165   83.5233   10.3399 F       1  UNL1       -0.2275
     20 C          62.9710   82.7592   12.1996 C.ar    1  UNL1        0.0172
     21 C          63.1126   81.3298   11.7675 C.ar    1  UNL1        0.0194
     22 C          62.4924   80.2346   12.5836 C.ar    1  UNL1        0.0987
     23 N          61.7306   80.5688   13.8317 N.ar    1  UNL1       -0.2423
     24 C          61.5890   81.9983   14.2639 C.ar    1  UNL1        0.0987
     25 C          62.2092   83.0935   13.4478 C.ar    1  UNL1        0.0194
@<TRIPOS>BOND
     1    16    17    1
     2    17     1    1
     3     1     2    2
     4     2     3    1
     5     3     4    1
     6     3     5    2
     7     5     6   ar
     8     6     7   ar
     9     7     8    1
    10     8     9    2
    11     9    10    1
    12    10    11    1
    13    10    12    2
    14    12    13   ar
    15    13    18    1
    16    18    19    1
    17    18    20    1
    18    20    21   ar
    19    21    22   ar
    20    22    23   ar
    21    23    24   ar
    22    24    25   ar
    23    13    14   ar
    24    14    15    1
    25    15     1    1
    26    14     5   ar
    27    12     7   ar
    28    25    20   ar
@<TRIPOS>MOLECULE
*****
 25 28 0 0 0
SMALL
GASTEIGER

@<TRIPOS>ATOM
      1 C          62.8659   89.0553   11.6840 C.2     1  UNL1        0.1204
      2 C          62.0388   88.6471   10.5010 C.2     1  UNL1        0.0299
      3 C          61.7593   87.1955   10.2465 C.2     1  UNL1       -0.0018
      4 C          60.9322   86.7872    9.0636 C.3     1  UNL1        0.0327
      5 C          62.3068   86.1522   11.1749 C.ar    1  UNL1        0.0754
      6 N          62.0272   84.7006   10.9203 N.ar    1  UNL1       -0.2257
      7 C          62.5747   83.6574   11.8486 C.ar    1  UNL1        0.1846
      8 N          62.4663   82.1613   11.8531 N.2     1  UNL1       -0.1288
      9 N          63.2263   81.6450   13.0387 N.2     1  UNL1       -0.1508
     10 C          63.8045   82.8220   13.7671 C.2     1  UNL1        0.0837
     11 C          64.6388   82.7651   15.0123 C.3     1  UNL1        0.0541
     12 C          63.4018   84.0657   13.0316 C.ar    1  UNL1        0.0515
     13 C          63.6813   85.5173   13.2861 C.ar    1  UNL1        0.0162
     14 C          63.1338   86.5605   12.3577 C.ar    1  UNL1        0.0018
     15 C          63.4134   88.0121   12.6124 C.3     1  UNL1        0.0914
     16 C          63.9526   90.9168   13.1347 C.3     1  UNL1        0.2520
     17 O          63.1454   90.5069   11.9385 O.2     1  UNL1       -0.4754
     18 C          64.5084   85.9256   14.4690 C.3     1  UNL1        0.2056
     19 F          65.9909   85.6970   14.4625 F       1  UNL1       -0.2275
     20 C          63.8530   86.5625   15.6584 C.ar    1  UNL1        0.0172
     21 C          63.2510   85.7049   16.7318 C.ar    1  UNL1        0.0194
     22 C          62.5955   86.3419   17.9212 C.ar    1  UNL1        0.0987
     23 N          62.5421   87.8364   18.0373 N.ar    1  UNL1       -0.2423
     24 C          63.1442   88.6940   16.9639 C.ar    1  UNL1        0.0987
     25 C          63.7996   88.0571   15.7745 C.ar    1  UNL1        0.0194
@<TRIPOS>BOND
     1    16    17    1
     2    17     1    1
     3     1     2    2
     4     2     3    1
     5     3     4    1
     6     3     5    2
     7     5     6   ar
     8     6     7   ar
     9     7     8    1
    10     8     9    2
    11     9    10    1
    12    10    11    1
    13    10    12    2
    14    12    13   ar
    15    13    18    1
    16    18    19    1
    17    18    20    1
    18    20    21   ar
    19    21    22   ar
    20    22    23   ar
    21    23    24   ar
    22    24    25   ar
    23    13    14   ar
    24    14    15    1
    25    15     1    1
    26    14     5   ar
    27    12     7   ar
    28    25    20   ar
@<TRIPOS>MOLECULE
*****
 25 28 0 0 0
SMALL
GASTEIGER

@<TRIPOS>ATOM
      1 C          62.9524   89.1707   12.4042 C.2     1  UNL1        0.1204
      2 C          61.7618   90.0765   12.5144 C.2     1  UNL1        0.0299
      3 C          60.5905   89.8905   11.5960 C.2     1  UNL1       -0.0018
      4 C          59.3999   90.7963   11.7061 C.3     1  UNL1        0.0327
      5 C          60.6098   88.7988   10.5674 C.ar    1  UNL1        0.0754
      6 N          59.4384   88.6129    9.6490 N.ar    1  UNL1       -0.2257
      7 C          59.4577   87.5212    8.6205 C.ar    1  UNL1        0.1846
      8 N          58.4571   87.0997    7.5855 N.2     1  UNL1       -0.1288
      9 N          59.0294   85.9333    6.8357 N.2     1  UNL1       -0.1508
     10 C          60.3836   85.6341    7.4073 C.2     1  UNL1        0.0837
     11 C          61.3103   84.5447    6.9552 C.3     1  UNL1        0.0541
     12 C          60.6482   86.6155    8.5104 C.ar    1  UNL1        0.0515
     13 C          61.8196   86.8014    9.4288 C.ar    1  UNL1        0.0162
     14 C          61.8003   87.8931   10.4573 C.ar    1  UNL1        0.0018
     15 C          62.9717   88.0790   11.3757 C.3     1  UNL1        0.0914
     16 C          64.2925   88.4605   14.5137 C.3     1  UNL1        0.2520
     17 O          64.1237   89.3566   13.3226 O.2     1  UNL1       -0.4754
     18 C          63.0101   85.8957    9.3186 C.3     1  UNL1        0.2056
     19 F          64.0722   86.1739    8.2964 F       1  UNL1       -0.2275
     20 C          63.1387   84.7117   10.2306 C.ar    1  UNL1        0.0172
     21 C          62.4914   84.7334   11.5836 C.ar    1  UNL1        0.0194
     22 C          62.6200   83.5494   12.4955 C.ar    1  UNL1        0.0987
     23 N          63.3959   82.3439   12.0546 N.ar    1  UNL1       -0.2423
     24 C          64.0433   82.3222   10.7016 C.ar    1  UNL1        0.0987
     25 C          63.9147   83.5061    9.7896 C.ar    1  UNL1        0.0194
@<TRIPOS>BOND
     1    16    17    1
     2    17     1    1
     3     1     2    2
     4     2     3    1
     5     3     4    1
     6     3     5    2
     7     5     6   ar
     8     6     7   ar
     9     7     8    1
    10     8     9    2
    11     9    10    1
    12    10    11    1
    13    10    12    2
    14    12    13   ar
    15    13    18    1
    16    18    19    1
    17    18    20    1
    18    20    21   ar
    19    21    22   ar
    20    22    23   ar
    21    23    24   ar
    22    24    25   ar
    23    13    14   ar
    24    14    15    1
    25    15     1    1
    26    14     5   ar
    27    12     7   ar
    28    25    20   ar
@<TRIPOS>MOLECULE
*****
 25 28 0 0 0
SMALL
GASTEIGER

@<TRIPOS>ATOM
      1 C          59.8662   92.4033    3.8401 C.2     1  UNL1        0.1204
      2 C          61.1557   91.6654    4.0472 C.2     1  UNL1        0.0299
      3 C          62.2701   91.8095    3.0535 C.2     1  UNL1       -0.0018
      4 C          63.5595   91.0716    3.2605 C.3     1  UNL1        0.0327
      5 C          62.0950   92.6915    1.8529 C.ar    1  UNL1        0.0754
      6 N          63.2095   92.8356    0.8592 N.ar    1  UNL1       -0.2257
      7 C          63.0345   93.7176   -0.3413 C.ar    1  UNL1        0.1846
      8 N          63.9488   94.0530   -1.4822 N.2     1  UNL1       -0.1288
      9 N          63.2243   94.9982   -2.3942 N.2     1  UNL1       -0.1508
     10 C          61.8623   95.2469   -1.8171 C.2     1  UNL1        0.0837
     11 C          60.8036   96.1318   -2.4054 C.3     1  UNL1        0.0541
     12 C          61.7450   94.4555   -0.5483 C.ar    1  UNL1        0.0515
     13 C          60.6306   94.3114    0.4453 C.ar    1  UNL1        0.0162
     14 C          60.8056   93.4294    1.6459 C.ar    1  UNL1        0.0018
     15 C          59.6911   93.2853    2.6396 C.3     1  UNL1        0.0914
     16 C          58.5577   90.9611    5.5601 C.3     1  UNL1        0.2520
     17 O          58.7518   92.2592    4.8338 O.2     1  UNL1       -0.4754
     18 C          59.3411   95.0493    0.2384 C.3     1  UNL1        0.2056
     19 F          59.1930   96.4556    0.7390 F       1  UNL1       -0.2275
     20 C          58.1998   94.3809   -0.4691 C.ar    1  UNL1        0.0172
     21 C          58.1912   92.8904   -0.6373 C.ar    1  UNL1        0.0194
     22 C          57.0497   92.2221   -1.3449 C.ar    1  UNL1        0.0987
     23 N          55.9170   93.0442   -1.8842 N.ar    1  UNL1       -0.2423
     24 C          55.9256   94.5348   -1.7159 C.ar    1  UNL1        0.0987
     25 C          57.0670   95.2032   -1.0084 C.ar    1  UNL1        0.0194
@<TRIPOS>BOND
     1    16    17    1
     2    17     1    1
     3     1     2    2
     4     2     3    1
     5     3     4    1
     6     3     5    2
     7     5     6   ar
     8     6     7   ar
     9     7     8    1
    10     8     9    2
    11     9    10    1
    12    10    11    1
    13    10    12    2
    14    12    13   ar
    15    13    18    1
    16    18    19    1
    17    18    20    1
    18    20    21   ar
    19    21    22   ar
    20    22    23   ar
    21    23    24   ar
    22    24    25   ar
    23    13    14   ar
    24    14    15    1
    25    15     1    1
    26    14     5   ar
    27    12     7   ar
    28    25    20   ar
@<TRIPOS>MOLECULE
*****
 25 28 0 0 0
SMALL
GASTEIGER

@<TRIPOS>ATOM
      1 C          61.0523   89.4330   12.0771 C.2     1  UNL1        0.1204
      2 C          61.3124   89.9002   10.6756 C.2     1  UNL1        0.0299
      3 C          62.5201   90.7380   10.3763 C.2     1  UNL1       -0.0018
      4 C          62.7802   91.2051    8.9749 C.3     1  UNL1        0.0327
      5 C          63.4677   91.1086   11.4786 C.ar    1  UNL1        0.0754
      6 N          64.6754   91.9464   11.1792 N.ar    1  UNL1       -0.2257
      7 C          65.6229   92.3170   12.2814 C.ar    1  UNL1        0.1846
      8 N          66.8868   93.1249   12.2891 N.2     1  UNL1       -0.1288
      9 N          67.4077   93.1570   13.6954 N.2     1  UNL1       -0.1508
     10 C          66.4658   92.3690   14.5568 C.2     1  UNL1        0.0837
     11 C          66.6030   92.1403   16.0329 C.3     1  UNL1        0.0541
     12 C          65.3628   91.8498   13.6828 C.ar    1  UNL1        0.0515
     13 C          64.1551   91.0121   13.9821 C.ar    1  UNL1        0.0162
     14 C          63.2076   90.6415   12.8799 C.ar    1  UNL1        0.0018
     15 C          61.9998   89.8036   13.1793 C.3     1  UNL1        0.0914
     16 C          58.5470   89.2534   12.7415 C.3     1  UNL1        0.2520
     17 O          59.8446   88.5952   12.3764 O.2     1  UNL1       -0.4754
     18 C          63.8949   90.5449   15.3836 C.3     1  UNL1        0.2056
     19 F          63.7416   91.5448   16.4912 F       1  UNL1       -0.2275
     20 C          63.7881   89.0778   15.6775 C.ar    1  UNL1        0.0172
     21 C          64.4396   88.0809   14.7655 C.ar    1  UNL1        0.0194
     22 C          64.3328   86.6138   15.0594 C.ar    1  UNL1        0.0987
     23 N          63.5745   86.1438   16.2652 N.ar    1  UNL1       -0.2423
     24 C          62.9230   87.1408   17.1772 C.ar    1  UNL1        0.0987
     25 C          63.0298   88.6078   16.8833 C.ar    1  UNL1        0.0194
@<TRIPOS>BOND
     1    16    17    1
     2    17     1    1
     3     1     2    2
     4     2     3    1
     5     3     4    1
     6     3     5    2
     7     5     6   ar
     8     6     7   ar
     9     7     8    1
    10     8     9    2
    11     9    10    1
    12    10    11    1
    13    10    12    2
    14    12    13   ar
    15    13    18    1
    16    18    19    1
    17    18    20    1
    18    20    21   ar
    19    21    22   ar
    20    22    23   ar
    21    23    24   ar
    22    24    25   ar
    23    13    14   ar
    24    14    15    1
    25    15     1    1
    26    14     5   ar
    27    12     7   ar
    28    25    20   ar
@<TRIPOS>MOLECULE
*****
 25 28 0 0 0
SMALL
GASTEIGER

@<TRIPOS>ATOM
      1 C          60.0146   92.9473    2.2085 C.2     1  UNL1        0.1204
      2 C          61.4572   92.6664    2.5086 C.2     1  UNL1        0.0299
      3 C          62.5034   92.9183    1.4637 C.2     1  UNL1       -0.0018
      4 C          63.9460   92.6373    1.7638 C.3     1  UNL1        0.0327
      5 C          62.1071   93.4511    0.1186 C.ar    1  UNL1        0.0754
      6 N          63.1535   93.7030   -0.9263 N.ar    1  UNL1       -0.2257
      7 C          62.7572   94.2358   -2.2713 C.ar    1  UNL1        0.1846
      8 N          63.5599   94.5799   -3.4908 N.2     1  UNL1       -0.1288
      9 N          62.6134   95.0735   -4.5446 N.2     1  UNL1       -0.1508
     10 C          61.2257   95.0345   -3.9764 C.2     1  UNL1        0.0837
     11 C          59.9697   95.4417   -4.6882 C.3     1  UNL1        0.0541
     12 C          61.3146   94.5168   -2.5714 C.ar    1  UNL1        0.0515
     13 C          60.2683   94.2649   -1.5264 C.ar    1  UNL1        0.0162
     14 C          60.6646   93.7320   -0.1815 C.ar    1  UNL1        0.0018
     15 C          59.6183   93.4802    0.8635 C.3     1  UNL1        0.0914
     16 C          59.3466   92.0486    4.5529 C.3     1  UNL1        0.2520
     17 O          58.9683   92.6954    3.2534 O.2     1  UNL1       -0.4754
     18 C          58.8257   94.5458   -1.8265 C.3     1  UNL1        0.2056
     19 F          58.2772   95.9299   -1.6428 F       1  UNL1       -0.2275
     20 C          57.9317   93.4428   -2.3103 C.ar    1  UNL1        0.0172
     21 C          56.6581   93.1349   -1.5800 C.ar    1  UNL1        0.0194
     22 C          55.7641   92.0318   -2.0638 C.ar    1  UNL1        0.0987
     23 N          56.1436   91.2367   -3.2777 N.ar    1  UNL1       -0.2423
     24 C          57.4172   91.5447   -4.0080 C.ar    1  UNL1        0.0987
     25 C          58.3113   92.6477   -3.5243 C.ar    1  UNL1        0.0194
@<TRIPOS>BOND
     1    16    17    1
     2    17     1    1
     3     1     2    2
     4     2     3    1
     5     3     4    1
     6     3     5    2
     7     5     6   ar
     8     6     7   ar
     9     7     8    1
    10     8     9    2
    11     9    10    1
    12    10    11    1
    13    10    12    2
    14    12    13   ar
    15    13    18    1
    16    18    19    1
    17    18    20    1
    18    20    21   ar
    19    21    22   ar
    20    22    23   ar
    21    23    24   ar
    22    24    25   ar
    23    13    14   ar
    24    14    15    1
    25    15     1    1
    26    14     5   ar
    27    12     7   ar
    28    25    20   ar
