@<TRIPOS>MOLECULE
*****
 31 34 0 0 0
SMALL
GASTEIGER

@<TRIPOS>ATOM
      1 C          63.3417   91.4211   12.1397 C.3     1  UNL1        0.0028
      2 C          63.4716   89.9863   12.5574 C.3     1  UNL1        0.0315
      3 C          62.9975   88.7950   11.7789 C.3     1  UNL1        0.0029
      4 C          63.3313   87.5634   12.5673 C.3     1  UNL1        0.0054
      5 C          63.1036   86.1057   12.2962 C.3     1  UNL1        0.0334
      6 C          62.4232   85.6757   11.0304 C.3     1  UNL1        0.0071
      7 C          62.1954   84.2181   10.7593 C.3     1  UNL1        0.0226
      8 C          62.6481   83.1905   11.7539 C.2     1  UNL1       -0.0354
      9 C          62.4204   81.7329   11.4828 C.2     1  UNL1        0.0339
     10 C          62.8731   80.7054   12.4774 C.2     1  UNL1        0.1948
     11 O          62.6454   79.2477   12.2062 O.2     1  UNL1       -0.2866
     12 C          63.5535   81.1355   13.7431 C.2     1  UNL1        0.0378
     13 C          63.7813   82.5930   14.0142 C.2     1  UNL1       -0.0171
     14 C          63.3286   83.6206   13.0196 C.3     1  UNL1        0.0638
     15 C          64.0090   84.0506   14.2854 C.3     1  UNL1        0.0112
     16 C          63.5563   85.0782   13.2907 C.3     1  UNL1        0.1644
     17 F          63.7840   86.5358   13.5619 F       1  UNL1       -0.2369
     18 C          64.2367   85.5083   14.5565 C.3     1  UNL1        0.1409
     19 O          64.6894   84.4807   15.5511 O.3     1  UNL1       -0.3817
     20 C          64.4644   86.9659   14.8276 C.3     1  UNL1        0.0347
     21 C          64.0117   87.9935   13.8330 C.3     1  UNL1        0.0315
     22 C          64.6943   88.3983   15.1059 C.3     1  UNL1        0.0028
     23 C          64.0984   89.4909   13.8269 C.3     1  UNL1        0.1413
     24 O          64.7871   89.4827   15.1594 O.3     1  UNL1       -0.3797
     25 H          64.4673   83.5947   15.2245 H       1  UNL1        0.2104
     26 H          64.8900   88.5677   15.4646 H       1  UNL1        0.2108
     27 C          64.3262   90.9485   14.0980 C.2     1  UNL1        0.2038
     28 O          63.4188   91.6875   15.0363 O.2     1  UNL1       -0.2910
     29 C          65.4612   91.6671   13.4307 C.3     1  UNL1        0.2044
     30 O          66.8508   91.5509   13.9834 O.3     1  UNL1       -0.3749
     31 H          66.8867   91.9680   14.8584 H       1  UNL1        0.2110
@<TRIPOS>BOND
     1     2     1    1
     2     2     3    1
     3     4     3    1
     4     4     5    1
     5     5     6    1
     6     6     7    1
     7     7     8    1
     8     8     9    2
     9     9    10    1
    10    10    11    2
    11    10    12    1
    12    12    13    2
    13    13    14    1
    14    14    15    1
    15    14    16    1
    16    16    17    1
    17    16    18    1
    18    18    19    1
    19    18    20    1
    20    20    21    1
    21    21    22    1
    22    21    23    1
    23    23    24    1
    24    23    27    1
    25    27    28    2
    26    27    29    1
    27    29    30    1
    28    23     2    1
    29    21     4    1
    30    16     5    1
    31    14     8    1
    32    19    25    1
    33    24    26    1
    34    30    31    1
@<TRIPOS>MOLECULE
*****
 31 34 0 0 0
SMALL
GASTEIGER

@<TRIPOS>ATOM
      1 C          64.9611   90.9408   14.9386 C.3     1  UNL1        0.0028
      2 C          64.4841   89.6689   14.3024 C.3     1  UNL1        0.0315
      3 C          64.6618   88.2859   14.8554 C.3     1  UNL1        0.0029
      4 C          64.0333   87.3190   13.8963 C.3     1  UNL1        0.0054
      5 C          63.9033   85.8247   13.9182 C.3     1  UNL1        0.0334
      6 C          64.4694   85.0394   15.0639 C.3     1  UNL1        0.0071
      7 C          64.3394   83.5452   15.0859 C.3     1  UNL1        0.0226
      8 C          63.6433   82.8363   13.9621 C.2     1  UNL1       -0.0354
      9 C          63.5133   81.3422   13.9840 C.2     1  UNL1        0.0339
     10 C          62.8172   80.6334   12.8602 C.2     1  UNL1        0.1948
     11 O          62.6872   79.1391   12.8821 O.2     1  UNL1       -0.2866
     12 C          62.2510   81.4187   11.7145 C.2     1  UNL1        0.0378
     13 C          62.3810   82.9129   11.6925 C.2     1  UNL1       -0.0171
     14 C          63.0771   83.6217   12.8163 C.3     1  UNL1        0.0638
     15 C          62.5110   84.4071   11.6706 C.3     1  UNL1        0.0112
     16 C          63.2071   85.1159   12.7944 C.3     1  UNL1        0.1644
     17 F          63.3371   86.6101   12.7725 F       1  UNL1       -0.2369
     18 C          62.6410   85.9013   11.6487 C.3     1  UNL1        0.1409
     19 O          61.9448   85.1924   10.5249 O.3     1  UNL1       -0.3817
     20 C          62.7709   87.3955   11.6268 C.3     1  UNL1        0.0347
     21 C          63.4671   88.1044   12.7506 C.3     1  UNL1        0.0315
     22 C          62.8927   88.8673   11.5939 C.3     1  UNL1        0.0028
     23 C          63.7458   89.5566   13.0016 C.3     1  UNL1        0.1413
     24 O          63.0649   89.9359   11.7199 O.3     1  UNL1       -0.3797
     25 H          61.9483   84.2372   10.6937 H       1  UNL1        0.2104
     26 H          62.7409   89.1360   11.2769 H       1  UNL1        0.2108
     27 C          63.8758   91.0509   12.9797 C.2     1  UNL1        0.2038
     28 O          63.0823   91.8869   13.9396 O.2     1  UNL1       -0.2910
     29 C          64.7992   91.7090   11.9978 C.3     1  UNL1        0.2044
     30 O          64.2941   92.1044   10.6420 O.3     1  UNL1       -0.3749
     31 H          64.0624   91.3084   10.1384 H       1  UNL1        0.2110
@<TRIPOS>BOND
     1     2     1    1
     2     2     3    1
     3     4     3    1
     4     4     5    1
     5     5     6    1
     6     6     7    1
     7     7     8    1
     8     8     9    2
     9     9    10    1
    10    10    11    2
    11    10    12    1
    12    12    13    2
    13    13    14    1
    14    14    15    1
    15    14    16    1
    16    16    17    1
    17    16    18    1
    18    18    19    1
    19    18    20    1
    20    20    21    1
    21    21    22    1
    22    21    23    1
    23    23    24    1
    24    23    27    1
    25    27    28    2
    26    27    29    1
    27    29    30    1
    28    23     2    1
    29    21     4    1
    30    16     5    1
    31    14     8    1
    32    19    25    1
    33    24    26    1
    34    30    31    1
@<TRIPOS>MOLECULE
*****
 31 34 0 0 0
SMALL
GASTEIGER

@<TRIPOS>ATOM
      1 C          60.4106   89.0260    8.1468 C.3     1  UNL1        0.0028
      2 C          61.3153   89.2655    9.3190 C.3     1  UNL1        0.0315
      3 C          62.1840   90.4698    9.5307 C.3     1  UNL1        0.0029
      4 C          62.9158   90.2913   10.8278 C.3     1  UNL1        0.0054
      5 C          63.9076   91.1560   11.5480 C.3     1  UNL1        0.0334
      6 C          64.3240   92.4708   10.9580 C.3     1  UNL1        0.0071
      7 C          65.3157   93.3355   11.6782 C.3     1  UNL1        0.0226
      8 C          65.8911   92.8855   12.9883 C.2     1  UNL1       -0.0354
      9 C          66.8829   93.7503   13.7085 C.2     1  UNL1        0.0339
     10 C          67.4582   93.3002   15.0185 C.2     1  UNL1        0.1948
     11 O          68.4500   94.1650   15.7388 O.2     1  UNL1       -0.2866
     12 C          67.0419   91.9855   15.6085 C.2     1  UNL1        0.0378
     13 C          66.0502   91.1207   14.8884 C.2     1  UNL1       -0.0171
     14 C          65.4748   91.5708   13.5783 C.3     1  UNL1        0.0638
     15 C          65.0584   90.2560   14.1682 C.3     1  UNL1        0.0112
     16 C          64.4830   90.7060   12.8581 C.3     1  UNL1        0.1644
     17 F          63.4913   89.8413   12.1379 F       1  UNL1       -0.2369
     18 C          64.0666   89.3913   13.4480 C.3     1  UNL1        0.1409
     19 O          64.6421   88.9412   14.7582 O.3     1  UNL1       -0.3817
     20 C          63.0749   88.5265   12.7279 C.3     1  UNL1        0.0347
     21 C          62.4995   88.9765   11.4177 C.3     1  UNL1        0.0315
     22 C          62.0990   87.6661   12.0281 C.3     1  UNL1        0.0028
     23 C          61.5103   88.3426   10.4853 C.3     1  UNL1        0.1413
     24 O          61.3767   87.1552   11.3921 O.3     1  UNL1       -0.3797
     25 H          65.2617   89.6114   15.0864 H       1  UNL1        0.2104
     26 H          61.9496   87.2732   12.1659 H       1  UNL1        0.2108
     27 C          60.5186   87.4778    9.7651 C.2     1  UNL1        0.2038
     28 O          59.0496   87.7499    9.8992 O.2     1  UNL1       -0.2910
     29 C          60.9958   86.3410    8.9107 C.3     1  UNL1        0.2044
     30 O          62.4546   85.9940    8.8705 O.3     1  UNL1       -0.3749
     31 H          62.9490   86.7222    8.4628 H       1  UNL1        0.2110
@<TRIPOS>BOND
     1     2     1    1
     2     2     3    1
     3     4     3    1
     4     4     5    1
     5     5     6    1
     6     6     7    1
     7     7     8    1
     8     8     9    2
     9     9    10    1
    10    10    11    2
    11    10    12    1
    12    12    13    2
    13    13    14    1
    14    14    15    1
    15    14    16    1
    16    16    17    1
    17    16    18    1
    18    18    19    1
    19    18    20    1
    20    20    21    1
    21    21    22    1
    22    21    23    1
    23    23    24    1
    24    23    27    1
    25    27    28    2
    26    27    29    1
    27    29    30    1
    28    23     2    1
    29    21     4    1
    30    16     5    1
    31    14     8    1
    32    19    25    1
    33    24    26    1
    34    30    31    1
@<TRIPOS>MOLECULE
*****
 31 34 0 0 0
SMALL
GASTEIGER

@<TRIPOS>ATOM
      1 C          66.5029   93.8682   13.8466 C.3     1  UNL1        0.0028
      2 C          65.7091   92.6596   13.4477 C.3     1  UNL1        0.0315
      3 C          64.8208   92.5459   12.2443 C.3     1  UNL1        0.0029
      4 C          64.2271   91.1686   12.2349 C.3     1  UNL1        0.0054
      5 C          63.2790   90.4906   11.2906 C.3     1  UNL1        0.0334
      6 C          62.7577   91.2283   10.0931 C.3     1  UNL1        0.0071
      7 C          61.8097   90.5505    9.1488 C.3     1  UNL1        0.0226
      8 C          61.3829   89.1349    9.4020 C.2     1  UNL1       -0.0354
      9 C          60.4349   88.4570    8.4577 C.2     1  UNL1        0.0339
     10 C          60.0081   87.0415    8.7110 C.2     1  UNL1        0.1948
     11 O          59.0601   86.3636    7.7667 O.2     1  UNL1       -0.2866
     12 C          60.5294   86.3039    9.9085 C.2     1  UNL1        0.0378
     13 C          61.4775   86.9817   10.8528 C.2     1  UNL1       -0.0171
     14 C          61.9042   88.3972   10.5995 C.3     1  UNL1        0.0638
     15 C          62.4255   87.6595   11.7971 C.3     1  UNL1        0.0112
     16 C          62.8523   89.0751   11.5439 C.3     1  UNL1        0.1644
     17 F          63.8003   89.7530   12.4881 F       1  UNL1       -0.2369
     18 C          63.3736   88.3375   12.7414 C.3     1  UNL1        0.1409
     19 O          62.9468   86.9219   12.9946 O.3     1  UNL1       -0.3817
     20 C          64.3216   89.0153   13.6857 C.3     1  UNL1        0.0347
     21 C          64.7484   90.4309   13.4325 C.3     1  UNL1        0.0315
     22 C          65.2557   89.6721   14.6228 C.3     1  UNL1        0.0028
     23 C          65.6643   91.3524   14.1819 C.3     1  UNL1        0.1413
     24 O          65.9308   90.2936   15.2105 O.3     1  UNL1       -0.3797
     25 H          62.3376   86.6378   12.2952 H       1  UNL1        0.2104
     26 H          65.4326   89.4921   14.9862 H       1  UNL1        0.2108
     27 C          66.6124   92.0303   15.1262 C.2     1  UNL1        0.2038
     28 O          68.0807   92.0613   14.8212 O.2     1  UNL1       -0.2910
     29 C          66.0921   92.6772   16.3756 C.3     1  UNL1        0.2044
     30 O          64.6298   92.6085   16.7026 O.3     1  UNL1       -0.3749
     31 H          64.1265   93.1070   16.0400 H       1  UNL1        0.2110
@<TRIPOS>BOND
     1     2     1    1
     2     2     3    1
     3     4     3    1
     4     4     5    1
     5     5     6    1
     6     6     7    1
     7     7     8    1
     8     8     9    2
     9     9    10    1
    10    10    11    2
    11    10    12    1
    12    12    13    2
    13    13    14    1
    14    14    15    1
    15    14    16    1
    16    16    17    1
    17    16    18    1
    18    18    19    1
    19    18    20    1
    20    20    21    1
    21    21    22    1
    22    21    23    1
    23    23    24    1
    24    23    27    1
    25    27    28    2
    26    27    29    1
    27    29    30    1
    28    23     2    1
    29    21     4    1
    30    16     5    1
    31    14     8    1
    32    19    25    1
    33    24    26    1
    34    30    31    1
@<TRIPOS>MOLECULE
*****
 31 34 0 0 0
SMALL
GASTEIGER

@<TRIPOS>ATOM
      1 C          62.4814   80.1348   11.9865 C.3     1  UNL1        0.0028
      2 C          62.6695   81.6055   12.2143 C.3     1  UNL1        0.0315
      3 C          62.4610   82.6888   11.1980 C.3     1  UNL1        0.0029
      4 C          62.7617   84.0038   11.8539 C.3     1  UNL1        0.0054
      5 C          62.7274   85.4128   11.3403 C.3     1  UNL1        0.0334
      6 C          62.3330   85.6834    9.9186 C.3     1  UNL1        0.0071
      7 C          62.2986   87.0922    9.4050 C.3     1  UNL1        0.0226
      8 C          62.6588   88.2306   10.3131 C.2     1  UNL1       -0.0354
      9 C          62.6244   89.6395    9.7995 C.2     1  UNL1        0.0339
     10 C          62.9846   90.7777   10.7075 C.2     1  UNL1        0.1948
     11 O          62.9503   92.1867   10.1939 O.2     1  UNL1       -0.2866
     12 C          63.3790   90.5071   12.1292 C.2     1  UNL1        0.0378
     13 C          63.4134   89.0982   12.6428 C.2     1  UNL1       -0.0171
     14 C          63.0532   87.9600   11.7348 C.3     1  UNL1        0.0638
     15 C          63.4477   87.6894   13.1564 C.3     1  UNL1        0.0112
     16 C          63.0875   86.5510   12.2484 C.3     1  UNL1        0.1644
     17 F          63.1219   85.1421   12.7620 F       1  UNL1       -0.2369
     18 C          63.4820   86.2804   13.6700 C.3     1  UNL1        0.1409
     19 O          63.8421   87.4187   14.5781 O.3     1  UNL1       -0.3817
     20 C          63.5163   84.8715   14.1837 C.3     1  UNL1        0.0347
     21 C          63.1562   83.7332   13.2756 C.3     1  UNL1        0.0315
     22 C          63.5539   83.4884   14.7011 C.3     1  UNL1        0.0028
     23 C          63.0992   82.2510   13.4983 C.3     1  UNL1        0.1413
     24 O          63.5314   82.4221   14.9245 O.3     1  UNL1       -0.3797
     25 H          63.7688   88.2553   14.0926 H       1  UNL1        0.2104
     26 H          63.6639   83.3647   15.1113 H       1  UNL1        0.2108
     27 C          63.1335   80.8420   14.0119 C.2     1  UNL1        0.2038
     28 O          64.4493   80.1659   14.2596 O.2     1  UNL1       -0.2910
     29 C          61.8520   80.1092   14.2777 C.3     1  UNL1        0.2044
     30 O          60.6200   80.8704   14.6689 O.3     1  UNL1       -0.3749
     31 H          60.7556   81.2807   15.5373 H       1  UNL1        0.2110
@<TRIPOS>BOND
     1     2     1    1
     2     2     3    1
     3     4     3    1
     4     4     5    1
     5     5     6    1
     6     6     7    1
     7     7     8    1
     8     8     9    2
     9     9    10    1
    10    10    11    2
    11    10    12    1
    12    12    13    2
    13    13    14    1
    14    14    15    1
    15    14    16    1
    16    16    17    1
    17    16    18    1
    18    18    19    1
    19    18    20    1
    20    20    21    1
    21    21    22    1
    22    21    23    1
    23    23    24    1
    24    23    27    1
    25    27    28    2
    26    27    29    1
    27    29    30    1
    28    23     2    1
    29    21     4    1
    30    16     5    1
    31    14     8    1
    32    19    25    1
    33    24    26    1
    34    30    31    1
@<TRIPOS>MOLECULE
*****
 31 34 0 0 0
SMALL
GASTEIGER

@<TRIPOS>ATOM
      1 C          64.3598   83.7174   14.4291 C.3     1  UNL1        0.0028
      2 C          63.8059   84.8312   13.5907 C.3     1  UNL1        0.0315
      3 C          62.9738   84.6730   12.3528 C.3     1  UNL1        0.0029
      4 C          62.6406   86.0426   11.8401 C.3     1  UNL1        0.0054
      5 C          61.8478   86.5048   10.6535 C.3     1  UNL1        0.0334
      6 C          61.2216   85.5000    9.7324 C.3     1  UNL1        0.0071
      7 C          60.4289   85.9621    8.5458 C.3     1  UNL1        0.0226
      8 C          60.2623   87.4291    8.2803 C.2     1  UNL1       -0.0354
      9 C          59.4696   87.8912    7.0937 C.2     1  UNL1        0.0339
     10 C          59.3031   89.3580    6.8282 C.2     1  UNL1        0.1948
     11 O          58.5103   89.8202    5.6416 O.2     1  UNL1       -0.2866
     12 C          59.9293   90.3628    7.7492 C.2     1  UNL1        0.0378
     13 C          60.7220   89.9007    8.9358 C.2     1  UNL1       -0.0171
     14 C          60.8885   88.4338    9.2013 C.3     1  UNL1        0.0638
     15 C          61.5148   89.4385   10.1224 C.3     1  UNL1        0.0112
     16 C          61.6813   87.9716   10.3879 C.3     1  UNL1        0.1644
     17 F          62.4740   87.5095   11.5745 F       1  UNL1       -0.2369
     18 C          62.3075   88.9764   11.3090 C.3     1  UNL1        0.1409
     19 O          62.1410   90.4433   11.0434 O.3     1  UNL1       -0.3817
     20 C          63.1003   88.5143   12.4955 C.3     1  UNL1        0.0347
     21 C          63.2668   87.0473   12.7611 C.3     1  UNL1        0.0315
     22 C          63.8832   88.0715   13.6673 C.3     1  UNL1        0.0028
     23 C          63.9870   86.2986   13.8430 C.3     1  UNL1        0.1413
     24 O          64.4240   87.5851   14.4788 O.3     1  UNL1       -0.3797
     25 H          61.6056   90.5685   10.2443 H       1  UNL1        0.2104
     26 H          64.0836   88.3327   13.9628 H       1  UNL1        0.2108
     27 C          64.7798   85.8365   15.0296 C.2     1  UNL1        0.2038
     28 O          66.2547   85.5969   14.8991 O.2     1  UNL1       -0.2910
     29 C          64.0975   85.6138   16.3468 C.3     1  UNL1        0.2044
     30 O          62.8650   86.3948   16.6945 O.3     1  UNL1       -0.3749
     31 H          63.0921   87.3334   16.7859 H       1  UNL1        0.2110
@<TRIPOS>BOND
     1     2     1    1
     2     2     3    1
     3     4     3    1
     4     4     5    1
     5     5     6    1
     6     6     7    1
     7     7     8    1
     8     8     9    2
     9     9    10    1
    10    10    11    2
    11    10    12    1
    12    12    13    2
    13    13    14    1
    14    14    15    1
    15    14    16    1
    16    16    17    1
    17    16    18    1
    18    18    19    1
    19    18    20    1
    20    20    21    1
    21    21    22    1
    22    21    23    1
    23    23    24    1
    24    23    27    1
    25    27    28    2
    26    27    29    1
    27    29    30    1
    28    23     2    1
    29    21     4    1
    30    16     5    1
    31    14     8    1
    32    19    25    1
    33    24    26    1
    34    30    31    1
@<TRIPOS>MOLECULE
*****
 31 34 0 0 0
SMALL
GASTEIGER

@<TRIPOS>ATOM
      1 C          67.5808   91.5941   15.9298 C.3     1  UNL1        0.0028
      2 C          66.6270   91.4163   14.7858 C.3     1  UNL1        0.0315
      3 C          65.6644   90.2797   14.6089 C.3     1  UNL1        0.0029
      4 C          64.9109   90.5049   13.3317 C.3     1  UNL1        0.0054
      5 C          63.8364   89.7130   12.6472 C.3     1  UNL1        0.0334
      6 C          63.3395   88.4371   13.2598 C.3     1  UNL1        0.0071
      7 C          62.2651   87.6452   12.5754 C.3     1  UNL1        0.0226
      8 C          61.6875   88.1292   11.2783 C.2     1  UNL1       -0.0354
      9 C          60.6131   87.3373   10.5939 C.2     1  UNL1        0.0339
     10 C          60.0355   87.8213    9.2970 C.2     1  UNL1        0.1948
     11 O          58.9610   87.0294    8.6125 O.2     1  UNL1       -0.2866
     12 C          60.5324   89.0972    8.6844 C.2     1  UNL1        0.0378
     13 C          61.6069   89.8891    9.3688 C.2     1  UNL1       -0.0171
     14 C          62.1844   89.4051   10.6658 C.3     1  UNL1        0.0638
     15 C          62.6813   90.6810   10.0533 C.3     1  UNL1        0.0112
     16 C          63.2589   90.1970   11.3503 C.3     1  UNL1        0.1644
     17 F          64.3333   90.9888   12.0347 F       1  UNL1       -0.2369
     18 C          63.7558   91.4728   10.7377 C.3     1  UNL1        0.1409
     19 O          63.1782   91.9568    9.4407 O.3     1  UNL1       -0.3817
     20 C          64.8302   92.2647   11.4222 C.3     1  UNL1        0.0347
     21 C          65.4078   91.7807   12.7192 C.3     1  UNL1        0.0315
     22 C          65.8879   93.0533   12.0867 C.3     1  UNL1        0.0028
     23 C          66.4684   92.3440   13.6179 C.3     1  UNL1        0.1413
     24 O          66.6648   93.5123   12.6976 O.3     1  UNL1       -0.3797
     25 H          62.5006   91.3333    9.1358 H       1  UNL1        0.2104
     26 H          66.0624   93.4330   11.9415 H       1  UNL1        0.2108
     27 C          67.5429   93.1359   14.3023 C.2     1  UNL1        0.2038
     28 O          67.1949   94.4021   15.0273 O.2     1  UNL1       -0.2910
     29 C          68.9653   92.6616   14.2618 C.3     1  UNL1        0.2044
     30 O          69.4559   91.8610   13.0921 O.3     1  UNL1       -0.3749
     31 H          68.9989   91.0056   13.0712 H       1  UNL1        0.2110
@<TRIPOS>BOND
     1     2     1    1
     2     2     3    1
     3     4     3    1
     4     4     5    1
     5     5     6    1
     6     6     7    1
     7     7     8    1
     8     8     9    2
     9     9    10    1
    10    10    11    2
    11    10    12    1
    12    12    13    2
    13    13    14    1
    14    14    15    1
    15    14    16    1
    16    16    17    1
    17    16    18    1
    18    18    19    1
    19    18    20    1
    20    20    21    1
    21    21    22    1
    22    21    23    1
    23    23    24    1
    24    23    27    1
    25    27    28    2
    26    27    29    1
    27    29    30    1
    28    23     2    1
    29    21     4    1
    30    16     5    1
    31    14     8    1
    32    19    25    1
    33    24    26    1
    34    30    31    1
@<TRIPOS>MOLECULE
*****
 31 34 0 0 0
SMALL
GASTEIGER

@<TRIPOS>ATOM
      1 C          64.8885   86.2955   15.4635 C.3     1  UNL1        0.0028
      2 C          64.1053   86.3214   14.1845 C.3     1  UNL1        0.0315
      3 C          63.5632   87.5451   13.5073 C.3     1  UNL1        0.0029
      4 C          62.8497   87.1083   12.2623 C.3     1  UNL1        0.0054
      5 C          62.1209   87.8776   11.2007 C.3     1  UNL1        0.0334
      6 C          62.0197   89.3713   11.2930 C.3     1  UNL1        0.0071
      7 C          61.2909   90.1407   10.2314 C.3     1  UNL1        0.0226
      8 C          60.6632   89.4163    9.0775 C.2     1  UNL1       -0.0354
      9 C          59.9345   90.1857    8.0160 C.2     1  UNL1        0.0339
     10 C          59.3069   89.4613    6.8622 C.2     1  UNL1        0.1948
     11 O          58.5780   90.2306    5.8005 O.2     1  UNL1       -0.2866
     12 C          59.4081   87.9675    6.7699 C.2     1  UNL1        0.0378
     13 C          60.1368   87.1982    7.8314 C.2     1  UNL1       -0.0171
     14 C          60.7644   87.9226    8.9853 C.3     1  UNL1        0.0638
     15 C          60.8656   86.4288    8.8930 C.3     1  UNL1        0.0112
     16 C          61.4933   87.1532   10.0469 C.3     1  UNL1        0.1644
     17 F          62.2220   86.3839   11.1084 F       1  UNL1       -0.2369
     18 C          61.5944   85.6595    9.9546 C.3     1  UNL1        0.1409
     19 O          60.9668   84.9351    8.8007 O.3     1  UNL1       -0.3817
     20 C          62.3232   84.8901   11.0162 C.3     1  UNL1        0.0347
     21 C          62.9509   85.6145   12.1701 C.3     1  UNL1        0.0315
     22 C          63.0383   84.1214   12.0554 C.3     1  UNL1        0.0028
     23 C          63.7269   85.1283   13.3580 C.3     1  UNL1        0.1413
     24 O          63.5947   83.7073   12.8958 O.3     1  UNL1       -0.3797
     25 H          60.5394   85.5756    8.2108 H       1  UNL1        0.2104
     26 H          63.0916   83.6824   12.0669 H       1  UNL1        0.2108
     27 C          64.4557   84.3589   14.4196 C.2     1  UNL1        0.2038
     28 O          65.9418   84.1770   14.3273 O.2     1  UNL1       -0.2910
     29 C          63.6984   83.7715   15.5735 C.3     1  UNL1        0.2044
     30 O          62.7367   82.6437   15.3431 O.3     1  UNL1       -0.3749
     31 H          61.9936   82.9574   14.8042 H       1  UNL1        0.2110
@<TRIPOS>BOND
     1     2     1    1
     2     2     3    1
     3     4     3    1
     4     4     5    1
     5     5     6    1
     6     6     7    1
     7     7     8    1
     8     8     9    2
     9     9    10    1
    10    10    11    2
    11    10    12    1
    12    12    13    2
    13    13    14    1
    14    14    15    1
    15    14    16    1
    16    16    17    1
    17    16    18    1
    18    18    19    1
    19    18    20    1
    20    20    21    1
    21    21    22    1
    22    21    23    1
    23    23    24    1
    24    23    27    1
    25    27    28    2
    26    27    29    1
    27    29    30    1
    28    23     2    1
    29    21     4    1
    30    16     5    1
    31    14     8    1
    32    19    25    1
    33    24    26    1
    34    30    31    1
@<TRIPOS>MOLECULE
*****
 31 34 0 0 0
SMALL
GASTEIGER

@<TRIPOS>ATOM
      1 C          63.0244   81.7150   11.4454 C.3     1  UNL1        0.0028
      2 C          63.0605   82.8212   12.4578 C.3     1  UNL1        0.0315
      3 C          63.3069   84.2725   12.1697 C.3     1  UNL1        0.0029
      4 C          63.2551   85.0185   13.4699 C.3     1  UNL1        0.0054
      5 C          63.4256   86.4717   13.8008 C.3     1  UNL1        0.0334
      6 C          63.7040   87.4618   12.7090 C.3     1  UNL1        0.0071
      7 C          63.8744   88.9149   13.0399 C.3     1  UNL1        0.0226
      8 C          63.7664   89.3779   14.4626 C.2     1  UNL1       -0.0354
      9 C          63.9368   90.8309   14.7935 C.2     1  UNL1        0.0339
     10 C          63.8288   91.2938   16.2161 C.2     1  UNL1        0.1948
     11 O          63.9992   92.7469   16.5471 O.2     1  UNL1       -0.2866
     12 C          63.5504   90.3036   17.3079 C.2     1  UNL1        0.0378
     13 C          63.3800   88.8506   16.9771 C.2     1  UNL1       -0.0171
     14 C          63.4880   88.3877   15.5544 C.3     1  UNL1        0.0638
     15 C          63.2095   87.3975   16.6462 C.3     1  UNL1        0.0112
     16 C          63.3176   86.9346   15.2235 C.3     1  UNL1        0.1644
     17 F          63.1471   85.4815   14.8926 F       1  UNL1       -0.2369
     18 C          63.0391   85.9444   16.3153 C.3     1  UNL1        0.1409
     19 O          62.9311   86.4073   17.7380 O.3     1  UNL1       -0.3817
     20 C          62.8687   84.4913   15.9844 C.3     1  UNL1        0.0347
     21 C          62.9767   84.0284   14.5617 C.3     1  UNL1        0.0315
     22 C          62.6989   83.0577   15.6711 C.3     1  UNL1        0.0028
     23 C          62.8564   82.6704   13.9362 C.3     1  UNL1        0.1413
     24 O          62.6007   82.0468   15.2763 O.3     1  UNL1       -0.3797
     25 H          63.0658   87.3671   17.7768 H       1  UNL1        0.2104
     26 H          62.6162   82.7339   15.9609 H       1  UNL1        0.2108
     27 C          62.6860   81.2173   13.6053 C.2     1  UNL1        0.2038
     28 O          63.8800   80.3098   13.5753 O.2     1  UNL1       -0.2910
     29 C          61.3215   80.6716   13.3043 C.3     1  UNL1        0.2044
     30 O          60.2489   80.7141   14.3520 O.3     1  UNL1       -0.3749
     31 H          60.4956   80.1360   15.0909 H       1  UNL1        0.2110
@<TRIPOS>BOND
     1     2     1    1
     2     2     3    1
     3     4     3    1
     4     4     5    1
     5     5     6    1
     6     6     7    1
     7     7     8    1
     8     8     9    2
     9     9    10    1
    10    10    11    2
    11    10    12    1
    12    12    13    2
    13    13    14    1
    14    14    15    1
    15    14    16    1
    16    16    17    1
    17    16    18    1
    18    18    19    1
    19    18    20    1
    20    20    21    1
    21    21    22    1
    22    21    23    1
    23    23    24    1
    24    23    27    1
    25    27    28    2
    26    27    29    1
    27    29    30    1
    28    23     2    1
    29    21     4    1
    30    16     5    1
    31    14     8    1
    32    19    25    1
    33    24    26    1
    34    30    31    1
