@<TRIPOS>MOLECULE
*****
 53 60 0 0 0
SMALL
GASTEIGER

@<TRIPOS>ATOM
      1 C          59.8375   89.4912    6.9617 C.3     1  UNL1        0.1445
      2 C          58.5273   90.0981    6.5553 C.3     1  UNL1        0.0322
      3 C          58.4624   91.0212    5.3747 C.3     1  UNL1        0.0049
      4 C          57.1522   91.6281    4.9684 C.3     1  UNL1        0.0002
      5 C          59.7077   91.3375    4.6005 C.3     1  UNL1        0.0298
      6 C          61.0179   90.7306    5.0069 C.3     1  UNL1        0.1418
      7 O          61.0828   89.8075    6.1874 O.3     1  UNL1       -0.3537
      8 C          62.0708   91.2235    4.0592 C.3     1  UNL1        0.1373
      9 O          63.5275   90.8675    4.0969 O.3     1  UNL1       -0.3820
     10 C          61.4115   92.1351    3.0671 C.3     1  UNL1        0.0272
     11 C          62.8868   91.9673    2.8548 C.3     1  UNL1        0.0025
     12 C          61.9522   92.9101    1.9023 C.3     1  UNL1        0.0023
     13 C          63.4127   92.8398    1.5677 C.3     1  UNL1        0.0001
     14 C          63.9535   93.6148    0.4029 C.3     1  UNL1        0.0001
     15 C          63.0338   94.4603   -0.4274 C.3     1  UNL1        0.0023
     16 C          63.5746   95.2353   -1.5922 C.3     1  UNL1        0.0251
     17 C          64.5528   95.7828   -2.5889 C.3     1  UNL1        0.0024
     18 C          64.8340   94.5800   -1.1081 C.3     1  UNL1        0.0024
     19 C          62.6548   96.0808   -2.4225 C.3     1  UNL1        0.1177
     20 C          61.1944   96.1512   -2.0879 C.3     1  UNL1        0.0296
     21 C          60.6536   95.3761   -0.9231 C.3     1  UNL1        0.0025
     22 C          61.5733   94.5307   -0.0928 C.3     1  UNL1        0.0002
     23 C          60.1128   94.6010    0.2418 C.3     1  UNL1        0.0000
     24 C          61.0325   93.7556    1.0720 C.3     1  UNL1        0.0001
     25 C          59.5720   93.8260    1.4066 C.3     1  UNL1        0.0000
     26 C          59.0312   93.0509    2.5714 C.3     1  UNL1        0.0002
     27 C          59.9509   92.2055    3.4017 C.3     1  UNL1        0.0046
     28 C          58.5212   92.1777    3.8548 C.3     1  UNL1        0.0002
     29 H          63.9897   91.3200    3.3741 H       1  UNL1        0.2104
     30 C          59.9024   88.5681    8.1422 C.3     1  UNL1        0.1664
     31 C          60.0179   87.0875    7.9311 C.3     1  UNL1        0.1156
     32 C          58.6268   87.0589    7.3707 C.3     1  UNL1        0.0319
     33 C          61.4090   87.1162    8.4914 C.3     1  UNL1        0.0319
     34 O          60.1334   85.6069    7.7199 O.3     1  UNL1       -0.3843
     35 H          59.3102   85.2703    7.3328 H       1  UNL1        0.2103
     36 O          59.8518   89.1256    9.5338 O.3     1  UNL1       -0.3514
     37 C          61.5190   89.7655   11.4207 C.3     1  UNL1        0.0346
     38 C          60.9745   89.9819   10.0399 C.3     1  UNL1        0.1423
     39 O          63.1956   96.8558   -3.5873 O.3     1  UNL1       -0.3320
     40 C          62.4929   96.8074   -4.9116 C.3     1  UNL1        0.2518
     41 C          60.9940   96.8260   -4.9665 C.3     1  UNL1        0.1343
     42 N          60.2913   96.7776   -6.2908 N.3     1  UNL1       -0.2651
     43 C          61.0874   96.7104   -7.5603 C.3     1  UNL1        0.1048
     44 C          62.5863   96.6918   -7.5055 C.3     1  UNL1        0.1621
     45 O          63.2891   96.7402   -6.1811 O.3     1  UNL1       -0.3280
     46 C          58.7924   96.7962   -6.3455 C.3     1  UNL1        0.0898
     47 C          57.7706   96.7631   -7.4432 C.3     1  UNL1        0.0897
     48 N          56.6726   96.8226   -6.4230 N.3     1  UNL1       -0.2682
     49 C          57.6944   96.8557   -5.3253 C.3     1  UNL1        0.0897
     50 C          55.1737   96.8413   -6.4778 C.3     1  UNL1        0.1043
     51 C          54.3888   95.6861   -5.9306 C.3     1  UNL1        0.1544
     52 O          54.9297   94.2915   -6.0427 O.3     1  UNL1       -0.3805
     53 H          54.9681   94.0337   -6.9770 H       1  UNL1        0.2105
@<TRIPOS>BOND
     1    37    38    1
     2    38    36    1
     3    30    36    1
     4    30     1    1
     5     1     2    1
     6     2     3    1
     7     3     4    1
     8     5     3    1
     9     5     6    1
    10     6     7    1
    11     6     8    1
    12     8     9    1
    13     8    10    1
    14    10    11    1
    15    10    12    1
    16    12    13    1
    17    13    14    1
    18    15    14    1
    19    15    16    1
    20    16    17    1
    21    16    18    1
    22    16    19    1
    23    19    39    1
    24    40    39    1
    25    40    41    1
    26    41    42    1
    27    42    46    1
    28    46    47    1
    29    47    48    1
    30    48    50    1
    31    50    51    1
    32    51    52    1
    33    48    49    1
    34    42    43    1
    35    43    44    1
    36    44    45    1
    37    19    20    1
    38    20    21    1
    39    22    21    1
    40    22    23    1
    41    24    23    1
    42    24    25    1
    43    25    26    1
    44    26    27    1
    45    27    28    1
    46    30    31    1
    47    31    32    1
    48    31    33    1
    49    31    34    1
    50     7     1    1
    51    27    10    1
    52    27     5    1
    53    24    12    1
    54    22    15    1
    55    45    40    1
    56    24    22    1
    57    49    46    1
    58     9    29    1
    59    52    53    1
    60    34    35    1
@<TRIPOS>MOLECULE
*****
 53 60 0 0 0
SMALL
GASTEIGER

@<TRIPOS>ATOM
      1 C          62.1284   95.6255   -4.2540 C.3     1  UNL1        0.1445
      2 C          63.4779   95.2859   -3.6941 C.3     1  UNL1        0.0322
      3 C          63.5877   94.6116   -2.3586 C.3     1  UNL1        0.0049
      4 C          64.9372   94.2720   -1.7987 C.3     1  UNL1        0.0002
      5 C          62.3481   94.2770   -1.5831 C.3     1  UNL1        0.0298
      6 C          60.9986   94.6166   -2.1431 C.3     1  UNL1        0.1418
      7 O          60.8887   95.2908   -3.4785 O.3     1  UNL1       -0.3537
      8 C          59.9612   94.1676   -1.1571 C.3     1  UNL1        0.1373
      9 O          58.4762   94.3106   -1.3130 O.3     1  UNL1       -0.3820
     10 C          60.6696   93.5505    0.0123 C.3     1  UNL1        0.0272
     11 C          59.1747   93.5534    0.1367 C.3     1  UNL1        0.0025
     12 C          60.1619   92.9357    1.2829 C.3     1  UNL1        0.0023
     13 C          58.6868   92.8681    1.5462 C.3     1  UNL1        0.0001
     14 C          58.1792   92.2533    2.8168 C.3     1  UNL1        0.0001
     15 C          59.1466   91.7062    3.8240 C.3     1  UNL1        0.0023
     16 C          58.6390   91.0914    5.0946 C.3     1  UNL1        0.0251
     17 C          57.6797   90.6084    6.1416 C.3     1  UNL1        0.0024
     18 C          57.3383   91.4708    4.4510 C.3     1  UNL1        0.0024
     19 C          59.6066   90.5443    6.1018 C.3     1  UNL1        0.1177
     20 C          61.0817   90.6119    5.8385 C.3     1  UNL1        0.0296
     21 C          61.5893   91.2266    4.5679 C.3     1  UNL1        0.0025
     22 C          60.6219   91.7738    3.5607 C.3     1  UNL1        0.0002
     23 C          62.0970   91.8414    3.2973 C.3     1  UNL1        0.0000
     24 C          61.1295   92.3886    2.2901 C.3     1  UNL1        0.0001
     25 C          62.6046   92.4562    2.0268 C.3     1  UNL1        0.0000
     26 C          63.1122   93.0710    0.7562 C.3     1  UNL1        0.0002
     27 C          62.1448   93.6181   -0.2510 C.3     1  UNL1        0.0046
     28 C          63.5841   93.7555   -0.6504 C.3     1  UNL1        0.0002
     29 H          58.0322   93.9397   -0.5344 H       1  UNL1        0.2104
     30 C          62.0185   96.2997   -5.5894 C.3     1  UNL1        0.1664
     31 C          60.6681   96.5774   -6.1806 C.3     1  UNL1        0.1156
     32 C          60.1253   96.8550   -4.8101 C.3     1  UNL1        0.0319
     33 C          61.2110   96.2998   -7.5511 C.3     1  UNL1        0.0319
     34 O          59.3178   96.8551   -6.7717 O.3     1  UNL1       -0.3843
     35 H          58.6957   97.0842   -6.0636 H       1  UNL1        0.2103
     36 O          63.2590   96.6962   -6.3337 O.3     1  UNL1       -0.3514
     37 C          65.7374   95.9582   -6.5840 C.3     1  UNL1        0.0346
     38 C          64.2733   95.6566   -6.7084 C.3     1  UNL1        0.1423
     39 O          59.0990   89.9295    7.3724 O.3     1  UNL1       -0.3320
     40 C          59.9356   88.9229    8.1051 C.3     1  UNL1        0.2518
     41 C          60.6966   89.3306    9.3317 C.3     1  UNL1        0.1343
     42 N          61.5332   88.3240   10.0644 N.3     1  UNL1       -0.2651
     43 C          61.6089   86.9097    9.5704 C.3     1  UNL1        0.1048
     44 C          60.8479   86.5020    8.3438 C.3     1  UNL1        0.1621
     45 O          60.0112   87.5086    7.6111 O.3     1  UNL1       -0.3280
     46 C          62.2942   88.7318   11.2910 C.3     1  UNL1        0.0898
     47 C          62.5012   90.0197   12.0316 C.3     1  UNL1        0.0897
     48 N          63.3705   89.3084   13.0258 N.3     1  UNL1       -0.2682
     49 C          63.1636   88.0205   12.2851 C.3     1  UNL1        0.0897
     50 C          64.1315   89.7161   14.2524 C.3     1  UNL1        0.1043
     51 C          63.5991   89.3762   15.6129 C.3     1  UNL1        0.1544
     52 O          62.1271   89.4669   15.8864 O.3     1  UNL1       -0.3805
     53 H          61.8438   90.3927   15.8279 H       1  UNL1        0.2105
@<TRIPOS>BOND
     1    37    38    1
     2    38    36    1
     3    30    36    1
     4    30     1    1
     5     1     2    1
     6     2     3    1
     7     3     4    1
     8     5     3    1
     9     5     6    1
    10     6     7    1
    11     6     8    1
    12     8     9    1
    13     8    10    1
    14    10    11    1
    15    10    12    1
    16    12    13    1
    17    13    14    1
    18    15    14    1
    19    15    16    1
    20    16    17    1
    21    16    18    1
    22    16    19    1
    23    19    39    1
    24    40    39    1
    25    40    41    1
    26    41    42    1
    27    42    46    1
    28    46    47    1
    29    47    48    1
    30    48    50    1
    31    50    51    1
    32    51    52    1
    33    48    49    1
    34    42    43    1
    35    43    44    1
    36    44    45    1
    37    19    20    1
    38    20    21    1
    39    22    21    1
    40    22    23    1
    41    24    23    1
    42    24    25    1
    43    25    26    1
    44    26    27    1
    45    27    28    1
    46    30    31    1
    47    31    32    1
    48    31    33    1
    49    31    34    1
    50     7     1    1
    51    27    10    1
    52    27     5    1
    53    24    12    1
    54    22    15    1
    55    45    40    1
    56    24    22    1
    57    49    46    1
    58     9    29    1
    59    52    53    1
    60    34    35    1
