@<TRIPOS>MOLECULE
*****
 36 39 0 0 0
SMALL
GASTEIGER

@<TRIPOS>ATOM
      1 C          64.2657   91.9686   11.5905 C.2     1  UNL1        0.2503
      2 O          64.2046   93.0698   10.5739 O.2     1  UNL1       -0.2699
      3 N          63.6454   90.6361   11.2909 N.am    1  UNL1       -0.2760
      4 C          63.7066   89.5348   12.3076 C.3     1  UNL1        0.0952
      5 C          63.0863   88.2023   12.0081 C.3     1  UNL1        0.0393
      6 C          62.4049   87.9711   10.6919 C.3     1  UNL1        0.0829
      7 C          62.3438   89.0723    9.6753 C.3     1  UNL1        0.0393
      8 C          62.9640   90.4048    9.9748 C.3     1  UNL1        0.0952
      9 C          66.2074   93.0111   12.9664 C.ar    1  UNL1        0.1102
     10 C          66.8888   93.2424   14.2825 C.ar    1  UNL1        0.0208
     11 C          66.3100   92.6623   15.5388 C.ar    1  UNL1        0.0310
     12 C          65.0497   91.8510   15.4791 C.ar    1  UNL1        0.1404
     13 F          64.4709   91.2710   16.7355 F       1  UNL1       -0.2042
     14 C          64.3683   91.6198   14.1630 C.ar    1  UNL1        0.0354
     15 C          64.9471   92.1998   12.9067 C.ar    1  UNL1        0.0729
     16 C          67.3651   94.1711   10.4536 C.3     1  UNL1        0.1816
     17 S          66.7862   93.5912   11.7100 S.O2    1  UNL1        0.0106
     18 O          66.1257   94.9037   12.0115 O.2     1  UNL1       -0.1686
     19 O          67.4467   92.2786   11.4084 O.2     1  UNL1       -0.1686
     20 N          61.7846   86.6386   10.3924 N.3     1  UNL1       -0.1582
     21 C          60.8007   86.5051    9.2680 C.3     1  UNL1        0.0796
     22 C          60.4479   85.9872    7.9052 C.3     1  UNL1        0.0192
     23 C          59.4493   86.7917    8.6834 C.3     1  UNL1        0.0192
     24 S          62.1482   85.4397   11.2172 S.O2    1  UNL1        0.0632
     25 O          61.3271   85.9725   12.3537 O.2     1  UNL1       -0.1528
     26 O          62.9694   84.9069   10.0806 O.2     1  UNL1       -0.1528
     27 C          62.5118   84.2407   12.0420 C.ar    1  UNL1        0.1221
     28 C          62.9239   84.4126   13.4741 C.ar    1  UNL1        0.0199
     29 C          63.2875   83.2137   14.2989 C.ar    1  UNL1        0.0013
     30 C          63.2390   81.8429   13.6918 C.ar    1  UNL1        0.0039
     31 C          62.8269   81.6711   12.2597 C.ar    1  UNL1        0.0727
     32 C          62.4633   82.8700   11.4349 C.ar    1  UNL1        0.0238
     33 C          62.7784   80.3003   11.6526 C.3     1  UNL1        0.4186
     34 F          62.7300   78.9295   11.0454 F       1  UNL1       -0.1659
     35 F          62.4904   79.7126   13.0023 F       1  UNL1       -0.1659
     36 F          63.0665   80.8879   10.3029 F       1  UNL1       -0.1659
@<TRIPOS>BOND
     1    16    17    1
     2    17    18    2
     3    17    19    2
     4    17     9    1
     5     9    10   ar
     6    10    11   ar
     7    11    12   ar
     8    12    13    1
     9    12    14   ar
    10    14    15   ar
    11    15     1    1
    12     1     2    2
    13     1     3   am
    14     3     4    1
    15     4     5    1
    16     5     6    1
    17     6    20    1
    18    20    21    1
    19    21    22    1
    20    22    23    1
    21    20    24    1
    22    24    25    2
    23    24    26    2
    24    24    27    1
    25    27    28   ar
    26    28    29   ar
    27    29    30   ar
    28    30    31   ar
    29    31    33    1
    30    33    34    1
    31    33    35    1
    32    33    36    1
    33    31    32   ar
    34     6     7    1
    35     7     8    1
    36    15     9   ar
    37     8     3    1
    38    23    21    1
    39    32    27   ar
@<TRIPOS>MOLECULE
*****
 36 39 0 0 0
SMALL
GASTEIGER

@<TRIPOS>ATOM
      1 C          62.6150   85.7081   12.1774 C.2     1  UNL1        0.2503
      2 O          61.8487   85.5904   10.8933 O.2     1  UNL1       -0.2699
      3 N          63.1427   87.0418   12.6163 N.am    1  UNL1       -0.2760
      4 C          63.9090   87.1594   13.9005 C.3     1  UNL1        0.0952
      5 C          64.4367   88.4932   14.3395 C.3     1  UNL1        0.0393
      6 C          64.1981   89.7092   13.4943 C.3     1  UNL1        0.0829
      7 C          63.4319   89.5916   12.2101 C.3     1  UNL1        0.0393
      8 C          62.9042   88.2578   11.7712 C.3     1  UNL1        0.0952
      9 C          63.4271   83.2508   12.4059 C.ar    1  UNL1        0.1102
     10 C          63.6657   82.0347   13.2510 C.ar    1  UNL1        0.0208
     11 C          63.3306   82.0599   14.7129 C.ar    1  UNL1        0.0310
     12 C          62.7570   83.3012   15.3296 C.ar    1  UNL1        0.1404
     13 F          62.4219   83.3263   16.7915 F       1  UNL1       -0.2042
     14 C          62.5184   84.5172   14.4844 C.ar    1  UNL1        0.0354
     15 C          62.8535   84.4920   13.0226 C.ar    1  UNL1        0.0729
     16 C          64.0972   83.2005    9.4821 C.3     1  UNL1        0.1816
     17 S          63.7622   83.2256   10.9440 S.O2    1  UNL1        0.0106
     18 O          65.1085   83.8159   11.2423 O.2     1  UNL1       -0.1686
     19 O          62.4159   82.6353   10.6456 O.2     1  UNL1       -0.1686
     20 N          64.7259   91.0430   13.9332 N.3     1  UNL1       -0.1582
     21 C          64.5948   91.4667   15.3662 C.3     1  UNL1        0.0796
     22 C          65.0760   92.2837   16.5284 C.3     1  UNL1        0.0192
     23 C          63.8865   91.3837   16.6858 C.3     1  UNL1        0.0192
     24 S          65.3847   91.9529   12.9393 S.O2    1  UNL1        0.0632
     25 O          66.7278   91.5987   13.5053 O.2     1  UNL1       -0.1528
     26 O          64.0415   92.3071   12.3733 O.2     1  UNL1       -0.1528
     27 C          66.0436   92.8629   11.9453 C.ar    1  UNL1        0.1221
     28 C          65.8235   94.3446   12.0241 C.ar    1  UNL1        0.0199
     29 C          66.4823   95.2546   11.0302 C.ar    1  UNL1        0.0013
     30 C          67.3612   94.6829    9.9576 C.ar    1  UNL1        0.0039
     31 C          67.5813   93.2012    9.8788 C.ar    1  UNL1        0.0727
     32 C          66.9225   92.2912   10.8727 C.ar    1  UNL1        0.0238
     33 C          68.4603   92.6295    8.8061 C.3     1  UNL1        0.4186
     34 F          69.3392   92.0578    7.7335 F       1  UNL1       -0.1659
     35 F          68.0588   93.7424    7.8840 F       1  UNL1       -0.1659
     36 F          68.8617   91.5166    9.7282 F       1  UNL1       -0.1659
@<TRIPOS>BOND
     1    16    17    1
     2    17    18    2
     3    17    19    2
     4    17     9    1
     5     9    10   ar
     6    10    11   ar
     7    11    12   ar
     8    12    13    1
     9    12    14   ar
    10    14    15   ar
    11    15     1    1
    12     1     2    2
    13     1     3   am
    14     3     4    1
    15     4     5    1
    16     5     6    1
    17     6    20    1
    18    20    21    1
    19    21    22    1
    20    22    23    1
    21    20    24    1
    22    24    25    2
    23    24    26    2
    24    24    27    1
    25    27    28   ar
    26    28    29   ar
    27    29    30   ar
    28    30    31   ar
    29    31    33    1
    30    33    34    1
    31    33    35    1
    32    33    36    1
    33    31    32   ar
    34     6     7    1
    35     7     8    1
    36    15     9   ar
    37     8     3    1
    38    23    21    1
    39    32    27   ar
@<TRIPOS>MOLECULE
*****
 36 39 0 0 0
SMALL
GASTEIGER

@<TRIPOS>ATOM
      1 C          62.3838   87.2116   11.8094 C.2     1  UNL1        0.2503
      2 O          62.3400   85.9848   12.6713 O.2     1  UNL1       -0.2699
      3 N          63.1249   88.4296   12.2756 N.am    1  UNL1       -0.2760
      4 C          63.1687   89.6565   11.4136 C.3     1  UNL1        0.0952
      5 C          63.9098   90.8745   11.8797 C.3     1  UNL1        0.0393
      6 C          64.6071   90.8656   13.2078 C.3     1  UNL1        0.0829
      7 C          64.5632   89.6388   14.0697 C.3     1  UNL1        0.0393
      8 C          63.8222   88.4208   13.6036 C.3     1  UNL1        0.0952
      9 C          60.5253   88.1415   10.2501 C.ar    1  UNL1        0.1102
     10 C          59.8281   88.1504    8.9221 C.ar    1  UNL1        0.0208
     11 C          60.2919   87.2383    7.8253 C.ar    1  UNL1        0.0310
     12 C          61.4531   86.3173    8.0566 C.ar    1  UNL1        0.1404
     13 F          61.9169   85.4052    6.9598 F       1  UNL1       -0.2042
     14 C          62.1504   86.3084    9.3846 C.ar    1  UNL1        0.0354
     15 C          61.6865   87.2205   10.4813 C.ar    1  UNL1        0.0729
     16 C          59.5976   89.9656   12.4437 C.3     1  UNL1        0.1816
     17 S          60.0615   89.0536   11.3469 S.O2    1  UNL1        0.0106
     18 O          60.4854   90.2429   10.5372 O.2     1  UNL1       -0.1686
     19 O          59.6376   87.8643   12.1566 O.2     1  UNL1       -0.1686
     20 N          65.3481   92.0836   13.6739 N.3     1  UNL1       -0.1582
     21 C          65.6306   92.2765   15.1345 C.3     1  UNL1        0.0796
     22 C          66.6053   92.5239   16.2474 C.3     1  UNL1        0.0192
     23 C          65.1452   92.3630   16.5511 C.3     1  UNL1        0.0192
     24 S          65.8067   93.1087   12.6796 S.O2    1  UNL1        0.0632
     25 O          65.7284   94.1696   13.7371 O.2     1  UNL1       -0.1528
     26 O          65.8851   92.0479   11.6220 O.2     1  UNL1       -0.1528
     27 C          66.2654   94.1340   11.6852 C.ar    1  UNL1        0.1221
     28 C          66.1326   95.5948   11.9988 C.ar    1  UNL1        0.0199
     29 C          66.5912   96.6200   11.0045 C.ar    1  UNL1        0.0013
     30 C          67.1826   96.1844    9.6967 C.ar    1  UNL1        0.0039
     31 C          67.3154   94.7235    9.3831 C.ar    1  UNL1        0.0727
     32 C          66.8568   93.6983   10.3774 C.ar    1  UNL1        0.0238
     33 C          67.9068   94.2879    8.0752 C.3     1  UNL1        0.4186
     34 F          68.4982   93.8524    6.7674 F       1  UNL1       -0.1659
     35 F          68.1620   92.9240    8.6449 F       1  UNL1       -0.1659
     36 F          67.6515   95.6518    7.5056 F       1  UNL1       -0.1659
@<TRIPOS>BOND
     1    16    17    1
     2    17    18    2
     3    17    19    2
     4    17     9    1
     5     9    10   ar
     6    10    11   ar
     7    11    12   ar
     8    12    13    1
     9    12    14   ar
    10    14    15   ar
    11    15     1    1
    12     1     2    2
    13     1     3   am
    14     3     4    1
    15     4     5    1
    16     5     6    1
    17     6    20    1
    18    20    21    1
    19    21    22    1
    20    22    23    1
    21    20    24    1
    22    24    25    2
    23    24    26    2
    24    24    27    1
    25    27    28   ar
    26    28    29   ar
    27    29    30   ar
    28    30    31   ar
    29    31    33    1
    30    33    34    1
    31    33    35    1
    32    33    36    1
    33    31    32   ar
    34     6     7    1
    35     7     8    1
    36    15     9   ar
    37     8     3    1
    38    23    21    1
    39    32    27   ar
@<TRIPOS>MOLECULE
*****
 36 39 0 0 0
SMALL
GASTEIGER

@<TRIPOS>ATOM
      1 C          62.2620   86.3013   11.8902 C.2     1  UNL1        0.2503
      2 O          62.2856   85.0804   12.7613 O.2     1  UNL1       -0.2699
      3 N          62.9122   87.5694   12.3583 N.am    1  UNL1       -0.2760
      4 C          62.8886   88.7903   11.4871 C.3     1  UNL1        0.0952
      5 C          63.5387   90.0584   11.9552 C.3     1  UNL1        0.0393
      6 C          64.2125   90.1056   13.2946 C.3     1  UNL1        0.0829
      7 C          64.2361   88.8848   14.1657 C.3     1  UNL1        0.0393
      8 C          63.5860   87.6167   13.6976 C.3     1  UNL1        0.0952
      9 C          62.0258   85.2497    9.5262 C.ar    1  UNL1        0.1102
     10 C          61.3520   85.2024    8.1868 C.ar    1  UNL1        0.0208
     11 C          60.2408   86.1595    7.8722 C.ar    1  UNL1        0.0310
     12 C          59.8032   87.1638    8.8968 C.ar    1  UNL1        0.1404
     13 F          58.6919   88.1209    8.5821 F       1  UNL1       -0.2042
     14 C          60.4770   87.2111   10.2361 C.ar    1  UNL1        0.0354
     15 C          61.5882   86.2540   10.5508 C.ar    1  UNL1        0.0729
     16 C          64.2484   83.3356   10.1556 C.3     1  UNL1        0.1816
     17 S          63.1371   84.2926    9.8409 S.O2    1  UNL1        0.0106
     18 O          64.0192   84.9905    8.8485 O.2     1  UNL1       -0.1686
     19 O          62.2550   83.5948   10.8333 O.2     1  UNL1       -0.1686
     20 N          64.8627   91.3737   13.7627 N.3     1  UNL1       -0.1582
     21 C          64.8412   91.7345   15.2186 C.3     1  UNL1        0.0796
     22 C          65.4881   92.3845   16.4055 C.3     1  UNL1        0.0192
     23 C          64.1569   91.7093   16.5532 C.3     1  UNL1        0.0192
     24 S          65.5344   92.2811   12.7751 S.O2    1  UNL1        0.0632
     25 O          64.1950   92.6776   12.2284 O.2     1  UNL1       -0.1528
     26 O          66.8738   91.8847   13.3218 O.2     1  UNL1       -0.1528
     27 C          66.2061   93.1885   11.7874 C.ar    1  UNL1        0.1221
     28 C          66.0437   94.6752   11.9037 C.ar    1  UNL1        0.0199
     29 C          66.7153   95.5826   10.9161 C.ar    1  UNL1        0.0013
     30 C          67.5494   95.0033    9.8121 C.ar    1  UNL1        0.0039
     31 C          67.7118   93.5167    9.6958 C.ar    1  UNL1        0.0727
     32 C          67.0402   92.6093   10.6834 C.ar    1  UNL1        0.0238
     33 C          68.5459   92.9375    8.5918 C.3     1  UNL1        0.4186
     34 F          69.3800   92.3584    7.4877 F       1  UNL1       -0.1659
     35 F          69.1586   91.9711    9.5616 F       1  UNL1       -0.1659
     36 F          67.9332   93.9039    7.6219 F       1  UNL1       -0.1659
@<TRIPOS>BOND
     1    16    17    1
     2    17    18    2
     3    17    19    2
     4    17     9    1
     5     9    10   ar
     6    10    11   ar
     7    11    12   ar
     8    12    13    1
     9    12    14   ar
    10    14    15   ar
    11    15     1    1
    12     1     2    2
    13     1     3   am
    14     3     4    1
    15     4     5    1
    16     5     6    1
    17     6    20    1
    18    20    21    1
    19    21    22    1
    20    22    23    1
    21    20    24    1
    22    24    25    2
    23    24    26    2
    24    24    27    1
    25    27    28   ar
    26    28    29   ar
    27    29    30   ar
    28    30    31   ar
    29    31    33    1
    30    33    34    1
    31    33    35    1
    32    33    36    1
    33    31    32   ar
    34     6     7    1
    35     7     8    1
    36    15     9   ar
    37     8     3    1
    38    23    21    1
    39    32    27   ar
@<TRIPOS>MOLECULE
*****
 36 39 0 0 0
SMALL
GASTEIGER

@<TRIPOS>ATOM
      1 C          61.0631   95.0160    1.6259 C.2     1  UNL1        0.2503
      2 O          61.6589   96.3372    2.0122 O.2     1  UNL1       -0.2699
      3 N          59.9058   94.9650    0.6730 N.am    1  UNL1       -0.2760
      4 C          59.3100   93.6437    0.2867 C.3     1  UNL1        0.0952
      5 C          58.1526   93.5927   -0.6661 C.3     1  UNL1        0.0393
      6 C          57.5910   94.8631   -1.2327 C.3     1  UNL1        0.0829
      7 C          58.1869   96.1844   -0.8464 C.3     1  UNL1        0.0393
      8 C          59.3442   96.2353    0.1065 C.3     1  UNL1        0.0952
      9 C          62.9679   93.2528    1.7418 C.ar    1  UNL1        0.1102
     10 C          63.5294   91.9825    2.3083 C.ar    1  UNL1        0.0208
     11 C          62.7478   91.2050    3.3253 C.ar    1  UNL1        0.0310
     12 C          61.4046   91.6978    3.7759 C.ar    1  UNL1        0.1404
     13 F          60.6230   90.9202    4.7930 F       1  UNL1       -0.2042
     14 C          60.8431   92.9681    3.2095 C.ar    1  UNL1        0.0354
     15 C          61.6247   93.7456    2.1924 C.ar    1  UNL1        0.0729
     16 C          64.5311   94.8080   -0.2924 C.3     1  UNL1        0.1816
     17 S          63.7495   94.0304    0.7247 S.O2    1  UNL1        0.0106
     18 O          64.6000   94.6058    1.8181 O.2     1  UNL1       -0.1686
     19 O          62.8990   93.4551   -0.3687 O.2     1  UNL1       -0.1686
     20 N          56.4337   94.8122   -2.1855 N.3     1  UNL1       -0.1582
     21 C          55.1151   95.4126   -1.7967 C.3     1  UNL1        0.0796
     22 C          53.6417   95.5718   -2.0279 C.3     1  UNL1        0.0192
     23 C          54.3049   96.2931   -0.8923 C.3     1  UNL1        0.0192
     24 S          56.5948   94.1608   -3.5271 S.O2    1  UNL1        0.0632
     25 O          57.5177   95.2643   -3.9519 O.2     1  UNL1       -0.1528
     26 O          55.6719   93.0574   -3.1022 O.2     1  UNL1       -0.1528
     27 C          56.7559   93.5095   -4.8687 C.ar    1  UNL1        0.1221
     28 C          57.6532   94.1278   -5.8996 C.ar    1  UNL1        0.0199
     29 C          57.8143   93.4766   -7.2412 C.ar    1  UNL1        0.0013
     30 C          57.0783   92.2071   -7.5518 C.ar    1  UNL1        0.0039
     31 C          56.1811   91.5888   -6.5209 C.ar    1  UNL1        0.0727
     32 C          56.0199   92.2400   -5.1794 C.ar    1  UNL1        0.0238
     33 C          55.4450   90.3192   -6.8317 C.3     1  UNL1        0.4186
     34 F          54.7090   89.0497   -7.1424 F       1  UNL1       -0.1659
     35 F          54.2384   90.8422   -6.1102 F       1  UNL1       -0.1659
     36 F          56.6516   89.7963   -7.5531 F       1  UNL1       -0.1659
@<TRIPOS>BOND
     1    16    17    1
     2    17    18    2
     3    17    19    2
     4    17     9    1
     5     9    10   ar
     6    10    11   ar
     7    11    12   ar
     8    12    13    1
     9    12    14   ar
    10    14    15   ar
    11    15     1    1
    12     1     2    2
    13     1     3   am
    14     3     4    1
    15     4     5    1
    16     5     6    1
    17     6    20    1
    18    20    21    1
    19    21    22    1
    20    22    23    1
    21    20    24    1
    22    24    25    2
    23    24    26    2
    24    24    27    1
    25    27    28   ar
    26    28    29   ar
    27    29    30   ar
    28    30    31   ar
    29    31    33    1
    30    33    34    1
    31    33    35    1
    32    33    36    1
    33    31    32   ar
    34     6     7    1
    35     7     8    1
    36    15     9   ar
    37     8     3    1
    38    23    21    1
    39    32    27   ar
