@<TRIPOS>MOLECULE
*****
 35 39 0 0 0
SMALL
GASTEIGER

@<TRIPOS>ATOM
      1 C          62.9089   87.5100   12.3967 C.ar    1  UNL1        0.0348
      2 C          63.5621   88.5423   13.2672 C.ar    1  UNL1        0.0686
      3 N          63.2396   89.8947   12.7040 N.ar    1  UNL1       -0.3242
      4 C          62.3872   89.6981   11.4855 C.ar    1  UNL1        0.0602
      5 C          61.7707   90.6708   10.5243 C.ar    1  UNL1        0.0203
      6 C          60.9498   90.1696    9.3733 C.ar    1  UNL1        0.0387
      7 C          60.7454   88.6958    9.1834 C.ar    1  UNL1        0.1469
      8 C          61.3619   87.7231   10.1446 C.ar    1  UNL1        0.0387
      9 C          62.1828   88.2243   11.2956 C.ar    1  UNL1        0.0215
     10 C          63.1618   81.4513   13.1968 C.ar    1  UNL1        0.2779
     11 N          62.8833   82.1590   11.9039 N.ar    1  UNL1       -0.1190
     12 N          62.9168   83.6354   12.1671 N.ar    1  UNL1       -0.2003
     13 C          62.7654   84.9853   11.5307 C.ar    1  UNL1        0.1218
     14 C          62.9709   86.0242   12.5930 C.ar    1  UNL1        0.1038
     15 N          63.2494   85.3164   13.8858 N.ar    1  UNL1       -0.2192
     16 C          63.2160   83.8401   13.6227 C.ar    1  UNL1        0.1998
     17 S          63.3674   82.4902   14.2591 S.2     1  UNL1        0.0098
     18 C          61.9571   79.1725   13.5222 C.3     1  UNL1        0.2548
     19 O          63.2239   79.9654   13.3930 O.3     1  UNL1       -0.4506
     20 C          64.3920   88.2701   14.4867 C.3     1  UNL1        0.1809
     21 O          63.7502   87.7086   15.7206 O.3     1  UNL1       -0.3760
     22 H          63.1310   88.3589   16.0875 H       1  UNL1        0.2110
     23 C          63.6905   91.2122   13.2614 C.3     1  UNL1        0.1333
     24 C          65.1547   91.5182   13.3722 C.ar    1  UNL1        0.0110
     25 C          65.8779   91.2670   14.6622 C.ar    1  UNL1       -0.0016
     26 C          67.3421   91.5730   14.7731 C.ar    1  UNL1       -0.0002
     27 C          68.0833   92.1302   13.5939 C.ar    1  UNL1        0.0008
     28 C          67.3601   92.3815   12.3040 C.ar    1  UNL1        0.0111
     29 C          65.8958   92.0755   12.1931 C.ar    1  UNL1        0.0555
     30 CL         65.1728   92.3267   10.9032 Cl      1  UNL1       -0.0825
     31 O          59.9244   88.1946    8.0323 O.3     1  UNL1       -0.4045
     32 C          59.8436   86.7231    7.7533 C.3     1  UNL1        0.5753
     33 F          59.7627   85.2514    7.4743 F       1  UNL1       -0.1328
     34 F          61.3130   86.6992    7.4532 F       1  UNL1       -0.1328
     35 F          58.3741   86.7469    8.0535 F       1  UNL1       -0.1328
@<TRIPOS>BOND
     1    18    19    1
     2    19    10    1
     3    10    11   ar
     4    11    12   ar
     5    12    13   ar
     6    13    14   ar
     7    14     1    1
     8     1     2   ar
     9     2    20    1
    10    20    21    1
    11     2     3   ar
    12     3    23    1
    13    23    24    1
    14    24    25   ar
    15    25    26   ar
    16    26    27   ar
    17    27    28   ar
    18    28    29   ar
    19    29    30    1
    20     3     4   ar
    21     4     5   ar
    22     5     6   ar
    23     6     7   ar
    24     7    31    1
    25    31    32    1
    26    32    33    1
    27    32    34    1
    28    32    35    1
    29     7     8   ar
    30     8     9   ar
    31    14    15   ar
    32    15    16   ar
    33    16    17   ar
    34    17    10   ar
    35    16    12   ar
    36     9     1   ar
    37    29    24   ar
    38     9     4   ar
    39    21    22    1
@<TRIPOS>MOLECULE
*****
 35 39 0 0 0
SMALL
GASTEIGER

@<TRIPOS>ATOM
      1 C          63.4650   89.2212   12.3065 C.ar    1  UNL1        0.0348
      2 C          62.6147   89.5134   11.1058 C.ar    1  UNL1        0.0686
      3 N          61.9459   88.2369   10.6897 N.ar    1  UNL1       -0.3242
      4 C          62.3828   87.1557   11.6333 C.ar    1  UNL1        0.0602
      5 C          62.0469   85.6959   11.7117 C.ar    1  UNL1        0.0203
      6 C          62.6500   84.8445   12.7893 C.ar    1  UNL1        0.0387
      7 C          63.5889   85.4528   13.7885 C.ar    1  UNL1        0.1469
      8 C          63.9247   86.9126   13.7101 C.ar    1  UNL1        0.0387
      9 C          63.3216   87.7641   12.6325 C.ar    1  UNL1        0.0215
     10 C          66.9117   93.2618   15.3406 C.ar    1  UNL1        0.2779
     11 N          66.1511   92.1202   15.9475 N.ar    1  UNL1       -0.1190
     12 N          65.4479   91.3913   14.8410 N.ar    1  UNL1       -0.2003
     13 C          64.5433   90.2354   14.5321 C.ar    1  UNL1        0.1218
     14 C          64.3103   90.2121   13.0505 C.ar    1  UNL1        0.1038
     15 N          65.0709   91.3536   12.4437 N.ar    1  UNL1       -0.2192
     16 C          65.7740   92.0825   13.5502 C.ar    1  UNL1        0.1998
     17 S          66.6787   93.2385   13.8590 S.2     1  UNL1        0.0098
     18 C          69.2524   94.1450   16.0412 C.3     1  UNL1        0.2548
     19 O          67.7569   94.2527   16.0848 O.3     1  UNL1       -0.4506
     20 C          62.4604   90.8478   10.4383 C.3     1  UNL1        0.1809
     21 O          63.6715   91.5890    9.9547 O.3     1  UNL1       -0.3760
     22 H          64.2159   91.8494   10.7141 H       1  UNL1        0.2110
     23 C          61.0053   88.0706    9.5332 C.3     1  UNL1        0.1333
     24 C          61.1711   86.9149    8.5916 C.ar    1  UNL1        0.0110
     25 C          62.5100   86.2551    8.4425 C.ar    1  UNL1       -0.0016
     26 C          62.6760   85.0993    7.5010 C.ar    1  UNL1       -0.0002
     27 C          61.5029   84.6032    6.7085 C.ar    1  UNL1        0.0008
     28 C          60.1641   85.2629    6.8576 C.ar    1  UNL1        0.0111
     29 C          59.9982   86.4188    7.7991 C.ar    1  UNL1        0.0555
     30 CL         58.6593   87.0784    7.9481 Cl      1  UNL1       -0.0825
     31 O          64.1920   84.6013   14.8662 O.3     1  UNL1       -0.4045
     32 C          64.0298   83.1107   14.8231 C.3     1  UNL1        0.5753
     33 F          63.8677   81.6201   14.7799 F       1  UNL1       -0.1328
     34 F          65.1417   83.0188   13.8205 F       1  UNL1       -0.1328
     35 F          62.9179   83.2027   15.8256 F       1  UNL1       -0.1328
@<TRIPOS>BOND
     1    18    19    1
     2    19    10    1
     3    10    11   ar
     4    11    12   ar
     5    12    13   ar
     6    13    14   ar
     7    14     1    1
     8     1     2   ar
     9     2    20    1
    10    20    21    1
    11     2     3   ar
    12     3    23    1
    13    23    24    1
    14    24    25   ar
    15    25    26   ar
    16    26    27   ar
    17    27    28   ar
    18    28    29   ar
    19    29    30    1
    20     3     4   ar
    21     4     5   ar
    22     5     6   ar
    23     6     7   ar
    24     7    31    1
    25    31    32    1
    26    32    33    1
    27    32    34    1
    28    32    35    1
    29     7     8   ar
    30     8     9   ar
    31    14    15   ar
    32    15    16   ar
    33    16    17   ar
    34    17    10   ar
    35    16    12   ar
    36     9     1   ar
    37    29    24   ar
    38     9     4   ar
    39    21    22    1
@<TRIPOS>MOLECULE
*****
 35 39 0 0 0
SMALL
GASTEIGER

@<TRIPOS>ATOM
      1 C          62.5214   86.9920   11.5298 C.ar    1  UNL1        0.0348
      2 C          62.8781   85.5482   11.7248 C.ar    1  UNL1        0.0686
      3 N          63.7104   85.4402   12.9680 N.ar    1  UNL1       -0.3242
      4 C          63.8681   86.8173   13.5414 C.ar    1  UNL1        0.0602
      5 C          64.5859   87.3218   14.7580 C.ar    1  UNL1        0.0203
      6 C          64.5688   88.7854   15.0858 C.ar    1  UNL1        0.0387
      7 C          63.8340   89.7445   14.1969 C.ar    1  UNL1        0.1469
      8 C          63.1162   89.2400   12.9803 C.ar    1  UNL1        0.0387
      9 C          63.1332   87.7764   12.6525 C.ar    1  UNL1        0.0215
     10 C          59.1619   89.2800    6.9592 C.ar    1  UNL1        0.2779
     11 N          60.1120   90.0511    7.8266 N.ar    1  UNL1       -0.1190
     12 N          60.7176   89.0970    8.8130 N.ar    1  UNL1       -0.2003
     13 C          61.6792   88.9838    9.9588 C.ar    1  UNL1        0.1218
     14 C          61.6975   87.5531   10.4089 C.ar    1  UNL1        0.1038
     15 N          60.7474   86.7820    9.5415 N.ar    1  UNL1       -0.2192
     16 C          60.1417   87.7361    8.5551 C.ar    1  UNL1        0.1998
     17 S          59.1802   87.8492    7.4093 S.2     1  UNL1        0.0098
     18 C          58.6363   91.2092    5.3003 C.3     1  UNL1        0.2548
     19 O          58.3380   89.8411    5.8382 O.3     1  UNL1       -0.4506
     20 C          62.4735   84.4119   10.8331 C.3     1  UNL1        0.1809
     21 O          63.4230   83.9027    9.7896 O.3     1  UNL1       -0.3760
     22 H          63.5675   84.5902    9.1208 H       1  UNL1        0.2110
     23 C          64.2843   84.1769   13.5379 C.3     1  UNL1        0.1333
     24 C          63.4730   82.9153   13.5325 C.ar    1  UNL1        0.0110
     25 C          63.8353   81.7945   12.6037 C.ar    1  UNL1       -0.0016
     26 C          63.0241   80.5329   12.5982 C.ar    1  UNL1       -0.0002
     27 C          61.8503   80.3920   13.5215 C.ar    1  UNL1        0.0008
     28 C          61.4879   81.5127   14.4503 C.ar    1  UNL1        0.0111
     29 C          62.2992   82.7744   14.4557 C.ar    1  UNL1        0.0555
     30 CL         61.9367   83.8951   15.3845 Cl      1  UNL1       -0.0825
     31 O          63.8169   91.2082   14.5247 O.3     1  UNL1       -0.4045
     32 C          64.8738   91.7895   15.4163 C.3     1  UNL1        0.5753
     33 F          65.9308   92.3707   16.3081 F       1  UNL1       -0.1328
     34 F          63.9386   91.6968   16.5854 F       1  UNL1       -0.1328
     35 F          65.8091   91.8821   14.2473 F       1  UNL1       -0.1328
@<TRIPOS>BOND
     1    18    19    1
     2    19    10    1
     3    10    11   ar
     4    11    12   ar
     5    12    13   ar
     6    13    14   ar
     7    14     1    1
     8     1     2   ar
     9     2    20    1
    10    20    21    1
    11     2     3   ar
    12     3    23    1
    13    23    24    1
    14    24    25   ar
    15    25    26   ar
    16    26    27   ar
    17    27    28   ar
    18    28    29   ar
    19    29    30    1
    20     3     4   ar
    21     4     5   ar
    22     5     6   ar
    23     6     7   ar
    24     7    31    1
    25    31    32    1
    26    32    33    1
    27    32    34    1
    28    32    35    1
    29     7     8   ar
    30     8     9   ar
    31    14    15   ar
    32    15    16   ar
    33    16    17   ar
    34    17    10   ar
    35    16    12   ar
    36     9     1   ar
    37    29    24   ar
    38     9     4   ar
    39    21    22    1
@<TRIPOS>MOLECULE
*****
 35 39 0 0 0
SMALL
GASTEIGER

@<TRIPOS>ATOM
      1 C          62.7824   87.7139   11.2777 C.ar    1  UNL1        0.0348
      2 C          62.7753   89.2071   11.4206 C.ar    1  UNL1        0.0686
      3 N          63.2525   89.5426   12.8025 N.ar    1  UNL1       -0.3242
      4 C          63.5544   88.2569   13.5137 C.ar    1  UNL1        0.0602
      5 C          64.0563   87.9693   14.8976 C.ar    1  UNL1        0.0203
      6 C          64.2677   86.5515   15.3391 C.ar    1  UNL1        0.0387
      7 C          63.9772   85.4212   14.3967 C.ar    1  UNL1        0.1469
      8 C          63.4752   85.7088   13.0128 C.ar    1  UNL1        0.0387
      9 C          63.2639   87.1267   12.5713 C.ar    1  UNL1        0.0215
     10 C          61.1366   84.5714    6.2949 C.ar    1  UNL1        0.2779
     11 N          60.2428   85.4516    7.1173 N.ar    1  UNL1       -0.1190
     12 N          61.0587   86.0214    8.2397 N.ar    1  UNL1       -0.2003
     13 C          61.0105   86.9175    9.4416 C.ar    1  UNL1        0.1218
     14 C          62.3788   86.9432   10.0557 C.ar    1  UNL1        0.1038
     15 N          63.2725   86.0630    9.2334 N.ar    1  UNL1       -0.2192
     16 C          62.4567   85.4932    8.1109 C.ar    1  UNL1        0.1998
     17 S          62.5049   84.5971    6.9090 S.2     1  UNL1        0.0098
     18 C          61.4569   84.0165    3.7771 C.3     1  UNL1        0.2548
     19 O          60.7329   83.8007    5.0729 O.3     1  UNL1       -0.4506
     20 C          62.3635   90.1917   10.3666 C.3     1  UNL1        0.1809
     21 O          60.9090   90.4682   10.1259 O.3     1  UNL1       -0.3760
     22 H          60.4814   89.6700    9.7783 H       1  UNL1        0.2110
     23 C          63.4015   90.9218   13.3731 C.3     1  UNL1        0.1333
     24 C          64.7682   91.4806   13.6372 C.ar    1  UNL1        0.0110
     25 C          65.3783   91.3569   15.0020 C.ar    1  UNL1       -0.0016
     26 C          66.7450   91.9157   15.2661 C.ar    1  UNL1       -0.0002
     27 C          67.5018   92.5982   14.1654 C.ar    1  UNL1        0.0008
     28 C          66.8918   92.7219   12.8007 C.ar    1  UNL1        0.0111
     29 C          65.5250   92.1631   12.5365 C.ar    1  UNL1        0.0555
     30 CL         64.9151   92.2868   11.1717 Cl      1  UNL1       -0.0825
     31 O          64.1886   84.0033   14.8383 O.3     1  UNL1       -0.4045
     32 C          63.0458   83.0321   14.8146 C.3     1  UNL1        0.5753
     33 F          61.9029   82.0608   14.7908 F       1  UNL1       -0.1328
     34 F          62.3004   83.8850   15.7978 F       1  UNL1       -0.1328
     35 F          63.7911   82.1791   13.8313 F       1  UNL1       -0.1328
@<TRIPOS>BOND
     1    18    19    1
     2    19    10    1
     3    10    11   ar
     4    11    12   ar
     5    12    13   ar
     6    13    14   ar
     7    14     1    1
     8     1     2   ar
     9     2    20    1
    10    20    21    1
    11     2     3   ar
    12     3    23    1
    13    23    24    1
    14    24    25   ar
    15    25    26   ar
    16    26    27   ar
    17    27    28   ar
    18    28    29   ar
    19    29    30    1
    20     3     4   ar
    21     4     5   ar
    22     5     6   ar
    23     6     7   ar
    24     7    31    1
    25    31    32    1
    26    32    33    1
    27    32    34    1
    28    32    35    1
    29     7     8   ar
    30     8     9   ar
    31    14    15   ar
    32    15    16   ar
    33    16    17   ar
    34    17    10   ar
    35    16    12   ar
    36     9     1   ar
    37    29    24   ar
    38     9     4   ar
    39    21    22    1
@<TRIPOS>MOLECULE
*****
 35 39 0 0 0
SMALL
GASTEIGER

@<TRIPOS>ATOM
      1 C          62.8373   86.8366   12.0346 C.ar    1  UNL1        0.0348
      2 C          63.4474   87.7438   13.0616 C.ar    1  UNL1        0.0686
      3 N          63.2121   89.1601   12.6273 N.ar    1  UNL1       -0.3242
      4 C          62.4566   89.1282   11.3318 C.ar    1  UNL1        0.0602
      5 C          61.9498   90.2213   10.4384 C.ar    1  UNL1        0.0203
      6 C          61.2112   89.8784    9.1787 C.ar    1  UNL1        0.0387
      7 C          60.9796   88.4424    8.8124 C.ar    1  UNL1        0.1469
      8 C          61.4864   87.3493    9.7058 C.ar    1  UNL1        0.0387
      9 C          62.2250   87.6922   10.9655 C.ar    1  UNL1        0.0215
     10 C          62.8449   80.7218   12.1804 C.ar    1  UNL1        0.2779
     11 N          62.5443   81.6308   13.3351 N.ar    1  UNL1       -0.1190
     12 N          62.6569   83.0465   12.8520 N.ar    1  UNL1       -0.2003
     13 C          62.5407   84.4833   13.2670 C.ar    1  UNL1        0.1218
     14 C          62.8391   85.3370   12.0703 C.ar    1  UNL1        0.1038
     15 N          63.1397   84.4279   10.9158 N.ar    1  UNL1       -0.2192
     16 C          63.0271   83.0123   11.3988 C.ar    1  UNL1        0.1998
     17 S          63.1433   81.5755   10.9837 S.2     1  UNL1        0.0098
     18 C          62.6969   78.4414   10.9443 C.3     1  UNL1        0.2548
     19 O          62.8467   79.2222   12.2163 O.3     1  UNL1       -0.4506
     20 C          64.1664   87.3107   14.3048 C.3     1  UNL1        0.1809
     21 O          63.4534   87.3171   15.6244 O.3     1  UNL1       -0.3760
     22 H          63.2381   88.2301   15.8712 H       1  UNL1        0.2110
     23 C          63.6546   90.3920   13.3598 C.3     1  UNL1        0.1333
     24 C          64.6961   91.2885   12.7587 C.ar    1  UNL1        0.0110
     25 C          64.5304   91.7960   11.3568 C.ar    1  UNL1       -0.0016
     26 C          65.5719   92.6926   10.7557 C.ar    1  UNL1       -0.0002
     27 C          66.7792   93.0818   11.5564 C.ar    1  UNL1        0.0008
     28 C          66.9449   92.5743   12.9582 C.ar    1  UNL1        0.0111
     29 C          65.9034   91.6778   13.5593 C.ar    1  UNL1        0.0555
     30 CL         66.0691   91.1704   14.9612 Cl      1  UNL1       -0.0825
     31 O          60.2410   88.0994    7.5526 O.3     1  UNL1       -0.4045
     32 C          59.2058   89.0399    7.0105 C.3     1  UNL1        0.5753
     33 F          58.1705   89.9803    6.4683 F       1  UNL1       -0.1328
     34 F          58.1518   88.3482    7.8232 F       1  UNL1       -0.1328
     35 F          60.2598   89.7315    6.1977 F       1  UNL1       -0.1328
@<TRIPOS>BOND
     1    18    19    1
     2    19    10    1
     3    10    11   ar
     4    11    12   ar
     5    12    13   ar
     6    13    14   ar
     7    14     1    1
     8     1     2   ar
     9     2    20    1
    10    20    21    1
    11     2     3   ar
    12     3    23    1
    13    23    24    1
    14    24    25   ar
    15    25    26   ar
    16    26    27   ar
    17    27    28   ar
    18    28    29   ar
    19    29    30    1
    20     3     4   ar
    21     4     5   ar
    22     5     6   ar
    23     6     7   ar
    24     7    31    1
    25    31    32    1
    26    32    33    1
    27    32    34    1
    28    32    35    1
    29     7     8   ar
    30     8     9   ar
    31    14    15   ar
    32    15    16   ar
    33    16    17   ar
    34    17    10   ar
    35    16    12   ar
    36     9     1   ar
    37    29    24   ar
    38     9     4   ar
    39    21    22    1
@<TRIPOS>MOLECULE
*****
 35 39 0 0 0
SMALL
GASTEIGER

@<TRIPOS>ATOM
      1 C          63.5337   88.0114   12.9431 C.ar    1  UNL1        0.0348
      2 C          63.6113   86.6997   13.6665 C.ar    1  UNL1        0.0686
      3 N          62.7340   85.7200   12.9451 N.ar    1  UNL1       -0.3242
      4 C          62.1142   86.4262   11.7758 C.ar    1  UNL1        0.0602
      5 C          61.1637   85.9626   10.7121 C.ar    1  UNL1        0.0203
      6 C          60.7074   86.9153    9.6471 C.ar    1  UNL1        0.0387
      7 C          61.2017   88.3315    9.6459 C.ar    1  UNL1        0.1469
      8 C          62.1522   88.7951   10.7096 C.ar    1  UNL1        0.0387
      9 C          62.6085   87.8424   11.7745 C.ar    1  UNL1        0.0215
     10 C          66.4740   93.1479   14.4867 C.ar    1  UNL1        0.2779
     11 N          65.6412   92.9447   13.2558 N.ar    1  UNL1       -0.1190
     12 N          65.1116   91.5415   13.2810 N.ar    1  UNL1       -0.2003
     13 C          64.2696   90.5486   12.5358 C.ar    1  UNL1        0.1218
     14 C          64.2548   89.2711   13.3216 C.ar    1  UNL1        0.1038
     15 N          65.0876   89.4744   14.5525 N.ar    1  UNL1       -0.2192
     16 C          65.6172   90.8775   14.5274 C.ar    1  UNL1        0.1998
     17 S          66.4592   91.8704   15.2726 S.2     1  UNL1        0.0098
     18 C          68.4584   94.3355   15.6707 C.3     1  UNL1        0.2548
     19 O          67.1951   94.4077   14.8653 O.3     1  UNL1       -0.4506
     20 C          64.4235   86.4173   14.8955 C.3     1  UNL1        0.1809
     21 O          65.5675   85.4493   14.8324 O.3     1  UNL1       -0.3760
     22 H          65.2278   84.5584   14.6541 H       1  UNL1        0.2110
     23 C          62.5148   84.2858   13.3260 C.3     1  UNL1        0.1333
     24 C          62.8666   83.1916   12.3623 C.ar    1  UNL1        0.0110
     25 C          63.6908   83.4986   11.1472 C.ar    1  UNL1       -0.0016
     26 C          64.0426   82.4045   10.1833 C.ar    1  UNL1       -0.0002
     27 C          63.5702   81.0031   10.4347 C.ar    1  UNL1        0.0008
     28 C          62.7461   80.6961   11.6497 C.ar    1  UNL1        0.0111
     29 C          62.3942   81.7902   12.6135 C.ar    1  UNL1        0.0555
     30 CL         61.5700   81.4831   13.8286 Cl      1  UNL1       -0.0825
     31 O          60.7454   89.2842    8.5808 O.3     1  UNL1       -0.4045
     32 C          59.5707   88.9353    7.7157 C.3     1  UNL1        0.5753
     33 F          58.3960   88.5864    6.8506 F       1  UNL1       -0.1328
     34 F          58.9251   88.2353    8.8746 F       1  UNL1       -0.1328
     35 F          60.2163   89.6354    6.5568 F       1  UNL1       -0.1328
@<TRIPOS>BOND
     1    18    19    1
     2    19    10    1
     3    10    11   ar
     4    11    12   ar
     5    12    13   ar
     6    13    14   ar
     7    14     1    1
     8     1     2   ar
     9     2    20    1
    10    20    21    1
    11     2     3   ar
    12     3    23    1
    13    23    24    1
    14    24    25   ar
    15    25    26   ar
    16    26    27   ar
    17    27    28   ar
    18    28    29   ar
    19    29    30    1
    20     3     4   ar
    21     4     5   ar
    22     5     6   ar
    23     6     7   ar
    24     7    31    1
    25    31    32    1
    26    32    33    1
    27    32    34    1
    28    32    35    1
    29     7     8   ar
    30     8     9   ar
    31    14    15   ar
    32    15    16   ar
    33    16    17   ar
    34    17    10   ar
    35    16    12   ar
    36     9     1   ar
    37    29    24   ar
    38     9     4   ar
    39    21    22    1
@<TRIPOS>MOLECULE
*****
 35 39 0 0 0
SMALL
GASTEIGER

@<TRIPOS>ATOM
      1 C          59.4275   94.0544   -0.9847 C.ar    1  UNL1        0.0348
      2 C          60.4817   93.9587   -2.0474 C.ar    1  UNL1        0.0686
      3 N          61.7403   93.4523   -1.4074 N.ar    1  UNL1       -0.3242
      4 C          61.4639   93.2351    0.0508 C.ar    1  UNL1        0.0602
      5 C          62.3291   92.7466    1.1745 C.ar    1  UNL1        0.0203
      6 C          61.7650   92.6302    2.5594 C.ar    1  UNL1        0.0387
      7 C          60.3355   93.0023    2.8207 C.ar    1  UNL1        0.1469
      8 C          59.4703   93.4908    1.6970 C.ar    1  UNL1        0.0387
      9 C          60.0345   93.6072    0.3121 C.ar    1  UNL1        0.0215
     10 C          53.6649   95.9375   -1.7963 C.ar    1  UNL1        0.2779
     11 N          54.1464   94.5185   -1.8635 N.ar    1  UNL1       -0.1190
     12 N          55.6239   94.5176   -1.6038 N.ar    1  UNL1       -0.2003
     13 C          56.8346   93.6401   -1.4849 C.ar    1  UNL1        0.1218
     14 C          58.0143   94.5162   -1.1837 C.ar    1  UNL1        0.1038
     15 N          57.5326   95.9352   -1.1166 N.ar    1  UNL1       -0.2192
     16 C          56.0553   95.9361   -1.3762 C.ar    1  UNL1        0.1998
     17 S          54.8446   96.8137   -1.4952 S.2     1  UNL1        0.0098
     18 C          51.4925   95.9838   -3.2206 C.3     1  UNL1        0.2548
     19 O          52.2516   96.3993   -1.9954 O.3     1  UNL1       -0.4506
     20 C          60.3079   94.3080   -3.4958 C.3     1  UNL1        0.1809
     21 O          60.8385   95.6083   -4.0226 O.3     1  UNL1       -0.3760
     22 H          60.3515   96.3436   -3.6188 H       1  UNL1        0.2110
     23 C          63.0460   93.2064   -2.1035 C.3     1  UNL1        0.1333
     24 C          63.9378   94.3601   -2.4546 C.ar    1  UNL1        0.0110
     25 C          64.5162   95.2186   -1.3689 C.ar    1  UNL1       -0.0016
     26 C          65.4080   96.3725   -1.7200 C.ar    1  UNL1       -0.0002
     27 C          65.7215   96.6679   -3.1569 C.ar    1  UNL1        0.0008
     28 C          65.1431   95.8095   -4.2425 C.ar    1  UNL1        0.0111
     29 C          64.2513   94.6556   -3.8914 C.ar    1  UNL1        0.0555
     30 CL         63.6730   93.7973   -4.9771 Cl      1  UNL1       -0.0825
     31 O          59.7714   92.8858    4.2057 O.3     1  UNL1       -0.4045
     32 C          59.2642   91.5637    4.7002 C.3     1  UNL1        0.5753
     33 F          58.7570   90.2414    5.1948 F       1  UNL1       -0.1328
     34 F          60.6641   91.1601    5.0571 F       1  UNL1       -0.1328
     35 F          57.8643   91.9672    4.3434 F       1  UNL1       -0.1328
@<TRIPOS>BOND
     1    18    19    1
     2    19    10    1
     3    10    11   ar
     4    11    12   ar
     5    12    13   ar
     6    13    14   ar
     7    14     1    1
     8     1     2   ar
     9     2    20    1
    10    20    21    1
    11     2     3   ar
    12     3    23    1
    13    23    24    1
    14    24    25   ar
    15    25    26   ar
    16    26    27   ar
    17    27    28   ar
    18    28    29   ar
    19    29    30    1
    20     3     4   ar
    21     4     5   ar
    22     5     6   ar
    23     6     7   ar
    24     7    31    1
    25    31    32    1
    26    32    33    1
    27    32    34    1
    28    32    35    1
    29     7     8   ar
    30     8     9   ar
    31    14    15   ar
    32    15    16   ar
    33    16    17   ar
    34    17    10   ar
    35    16    12   ar
    36     9     1   ar
    37    29    24   ar
    38     9     4   ar
    39    21    22    1
