@<TRIPOS>MOLECULE
*****
 47 51 0 0 0
SMALL
GASTEIGER

@<TRIPOS>ATOM
      1 N          61.1775   87.1839    9.0632 N.am    1  UNL1       -0.2541
      2 C          60.1272   86.9999    8.0083 C.2     1  UNL1        0.2456
      3 O          59.8963   85.6447    7.4081 O.2     1  UNL1       -0.2730
      4 C          59.3079   88.1712    7.5534 C.3     1  UNL1        0.1555
      5 N          59.5388   89.5263    8.1534 N.3     1  UNL1       -0.2883
      6 C          60.5891   89.7103    9.2084 C.3     1  UNL1        0.0932
      7 C          61.4084   88.5391    9.6633 C.3     1  UNL1        0.1390
      8 H          58.6532   89.8209    8.5650 H       1  UNL1        0.1237
      9 C          63.6356   83.6703   10.4280 C.ar    1  UNL1        0.1386
     10 C          63.7545   84.1662    9.0174 C.ar    1  UNL1        0.0382
     11 C          62.9352   85.3374    8.5625 C.ar    1  UNL1        0.0180
     12 C          61.9969   86.0127    9.5182 C.ar    1  UNL1        0.0542
     13 C          61.8779   85.5168   10.9288 C.ar    1  UNL1        0.0180
     14 C          62.6972   84.3456   11.3837 C.ar    1  UNL1        0.0382
     15 O          64.4549   82.4991   10.8829 O.3     1  UNL1       -0.4754
     16 C          64.0064   81.6810   12.0574 C.3     1  UNL1        0.2080
     17 C          62.6205   81.1079   12.0868 C.3     1  UNL1        0.0794
     18 C          61.8677   81.0318   13.3820 C.3     1  UNL1        0.1465
     19 O          62.4941   81.5446   14.6448 O.3     1  UNL1       -0.3488
     20 C          62.2364   82.9532   15.0915 C.3     1  UNL1        0.1716
     21 C          63.2181   85.2487   15.8104 C.ar    1  UNL1        0.1370
     22 C          64.3176   86.2673   15.7511 C.ar    1  UNL1        0.0367
     23 C          65.5348   86.0092   14.9134 C.ar    1  UNL1        0.0031
     24 C          65.6525   84.7324   14.1351 C.ar    1  UNL1       -0.0000
     25 C          64.5531   83.7137   14.1944 C.ar    1  UNL1        0.0012
     26 C          63.3359   83.9718   15.0321 C.ar    1  UNL1        0.0413
     27 C          62.0447   86.5374   17.7371 C.3     1  UNL1        0.2525
     28 O          62.0009   85.5069   16.6482 O.3     1  UNL1       -0.4717
     29 C          62.4588   88.7231   10.7184 C.3     1  UNL1        0.2267
     30 O          62.0663   89.1561   12.0998 O.3     1  UNL1       -0.4736
     31 C          63.0513   89.8843   12.9658 C.ar    1  UNL1        0.1398
     32 C          63.2381   89.4750   14.3967 C.ar    1  UNL1        0.0367
     33 C          64.2230   90.2031   15.2625 C.ar    1  UNL1        0.0001
     34 C          65.0211   91.3405   14.6975 C.ar    1  UNL1       -0.0086
     35 C          64.8343   91.7498   13.2665 C.ar    1  UNL1        0.0469
     36 C          63.8494   91.0217   12.4007 C.ar    1  UNL1        0.0511
     37 N          65.6325   92.8872   12.7015 N.pl3   1  UNL1       -0.3059
     38 C          66.6174   93.6153   13.5673 C.3     1  UNL1        0.0912
     39 C          66.8042   93.2060   14.9983 C.3     1  UNL1        0.0261
     40 C          66.0061   92.0686   15.5634 C.3     1  UNL1        0.0294
     41 C          65.4457   93.2965   11.2706 C.3     1  UNL1        0.1123
     42 C          66.3880   94.2803   10.6427 C.3     1  UNL1        0.1148
     43 N          67.2658   93.8556    9.5028 N.am    1  UNL1       -0.2760
     44 C          67.1996   94.5843    8.1934 C.3     1  UNL1        0.1149
     45 C          68.2096   92.7022    9.6724 C.2     1  UNL1        0.2262
     46 C          69.0874   92.2775    8.5325 C.3     1  UNL1        0.0948
     47 O          68.2759   91.9735   10.9818 O.2     1  UNL1       -0.2749
@<TRIPOS>BOND
     1    27    28    1
     2    28    21    1
     3    21    22   ar
     4    22    23   ar
     5    23    24   ar
     6    24    25   ar
     7    25    26   ar
     8    26    20    1
     9    20    19    1
    10    19    18    1
    11    18    17    1
    12    17    16    1
    13    16    15    1
    14    15     9    1
    15     9    10   ar
    16    10    11   ar
    17    11    12   ar
    18    12     1    1
    19     1     2   am
    20     2     3    2
    21     2     4    1
    22     4     5    1
    23     5     6    1
    24     6     7    1
    25     7    29    1
    26    29    30    1
    27    30    31    1
    28    31    32   ar
    29    32    33   ar
    30    33    34   ar
    31    34    35   ar
    32    35    36   ar
    33    35    37    1
    34    37    41    1
    35    41    42    1
    36    42    43    1
    37    43    44    1
    38    43    45   am
    39    45    46    1
    40    45    47    2
    41    37    38    1
    42    38    39    1
    43    39    40    1
    44    12    13   ar
    45    13    14   ar
    46    26    21   ar
    47    14     9   ar
    48     7     1    1
    49    36    31   ar
    50    40    34    1
    51     5     8    1
@<TRIPOS>MOLECULE
*****
 47 51 0 0 0
SMALL
GASTEIGER

@<TRIPOS>ATOM
      1 N          61.2355   88.4728    9.5241 N.am    1  UNL1       -0.2541
      2 C          60.0331   89.0755    8.8602 C.2     1  UNL1        0.2456
      3 O          59.6077   90.4723    9.2040 O.2     1  UNL1       -0.2730
      4 C          59.2560   88.2815    7.8523 C.3     1  UNL1        0.1555
      5 N          59.6814   86.8848    7.5085 N.3     1  UNL1       -0.2883
      6 C          60.8838   86.2821    8.1724 C.3     1  UNL1        0.0932
      7 C          61.6609   87.0761    9.1802 C.3     1  UNL1        0.1390
      8 H          59.8613   86.8705    6.5045 H       1  UNL1        0.1237
      9 C          63.5668   90.8548   12.5476 C.ar    1  UNL1        0.1386
     10 C          63.7184   91.1470   11.0842 C.ar    1  UNL1        0.0382
     11 C          62.9413   90.3530   10.0764 C.ar    1  UNL1        0.0180
     12 C          62.0126   89.2668   10.5319 C.ar    1  UNL1        0.0542
     13 C          61.8610   88.9746   11.9953 C.ar    1  UNL1        0.0180
     14 C          62.6381   89.7685   13.0032 C.ar    1  UNL1        0.0382
     15 O          64.3438   91.6488   13.5554 O.3     1  UNL1       -0.4754
     16 C          65.4711   91.0067   14.3084 C.3     1  UNL1        0.2080
     17 C          66.7236   91.7829   14.5892 C.3     1  UNL1        0.0794
     18 C          66.6489   93.2580   14.8512 C.3     1  UNL1        0.1465
     19 O          66.9243   94.2313   13.7436 O.3     1  UNL1       -0.3488
     20 C          66.1608   94.1377   12.4559 C.3     1  UNL1        0.1716
     21 C          67.0647   94.8212   10.1180 C.ar    1  UNL1        0.1370
     22 C          67.7783   94.4675    8.8469 C.ar    1  UNL1        0.0367
     23 C          68.3017   93.0768    8.6426 C.ar    1  UNL1        0.0031
     24 C          68.1114   92.0396    9.7094 C.ar    1  UNL1       -0.0000
     25 C          67.3978   92.3933   10.9805 C.ar    1  UNL1        0.0012
     26 C          66.8744   93.7840   11.1848 C.ar    1  UNL1        0.0413
     27 C          65.1279   96.5443    9.9455 C.3     1  UNL1        0.2525
     28 O          66.5413   96.2120   10.3222 O.3     1  UNL1       -0.4717
     29 C          62.8634   86.4734    9.8442 C.3     1  UNL1        0.2267
     30 O          63.4185   85.1703    9.3504 O.3     1  UNL1       -0.4736
     31 C          63.2538   83.9257   10.1713 C.ar    1  UNL1        0.1398
     32 C          63.4094   82.5785    9.5303 C.ar    1  UNL1        0.0367
     33 C          63.2447   81.3339   10.3512 C.ar    1  UNL1        0.0001
     34 C          62.9246   81.4365   11.8130 C.ar    1  UNL1       -0.0086
     35 C          62.7690   82.7837   12.4540 C.ar    1  UNL1        0.0469
     36 C          62.9337   84.0283   11.6331 C.ar    1  UNL1        0.0511
     37 N          62.4489   82.8863   13.9158 N.pl3   1  UNL1       -0.3059
     38 C          62.2842   81.6418   14.7367 C.3     1  UNL1        0.0912
     39 C          62.4398   80.2945   14.0958 C.3     1  UNL1        0.0261
     40 C          62.7599   80.1919   12.6339 C.3     1  UNL1        0.0294
     41 C          62.2934   84.2335   14.5568 C.3     1  UNL1        0.1123
     42 C          63.2884   84.6972   15.5790 C.3     1  UNL1        0.1148
     43 N          63.5355   86.1638   15.7738 N.am    1  UNL1       -0.2760
     44 C          64.4267   86.9070   14.8233 C.3     1  UNL1        0.1149
     45 C          62.8914   86.8873   16.9190 C.2     1  UNL1        0.2262
     46 C          63.1385   88.3540   17.1139 C.3     1  UNL1        0.0948
     47 O          62.0002   86.1441   17.8695 O.2     1  UNL1       -0.2749
@<TRIPOS>BOND
     1    27    28    1
     2    28    21    1
     3    21    22   ar
     4    22    23   ar
     5    23    24   ar
     6    24    25   ar
     7    25    26   ar
     8    26    20    1
     9    20    19    1
    10    19    18    1
    11    18    17    1
    12    17    16    1
    13    16    15    1
    14    15     9    1
    15     9    10   ar
    16    10    11   ar
    17    11    12   ar
    18    12     1    1
    19     1     2   am
    20     2     3    2
    21     2     4    1
    22     4     5    1
    23     5     6    1
    24     6     7    1
    25     7    29    1
    26    29    30    1
    27    30    31    1
    28    31    32   ar
    29    32    33   ar
    30    33    34   ar
    31    34    35   ar
    32    35    36   ar
    33    35    37    1
    34    37    41    1
    35    41    42    1
    36    42    43    1
    37    43    44    1
    38    43    45   am
    39    45    46    1
    40    45    47    2
    41    37    38    1
    42    38    39    1
    43    39    40    1
    44    12    13   ar
    45    13    14   ar
    46    26    21   ar
    47    14     9   ar
    48     7     1    1
    49    36    31   ar
    50    40    34    1
    51     5     8    1
@<TRIPOS>MOLECULE
*****
 47 51 0 0 0
SMALL
GASTEIGER

@<TRIPOS>ATOM
      1 N          62.7470   86.1085   12.0041 N.am    1  UNL1       -0.2541
      2 C          62.9492   84.6822   12.4218 C.2     1  UNL1        0.2456
      3 O          62.3208   83.5729   11.6314 O.2     1  UNL1       -0.2730
      4 C          63.7798   84.3650   13.6299 C.3     1  UNL1        0.1555
      5 N          64.4082   85.4742   14.4203 N.3     1  UNL1       -0.2883
      6 C          64.2060   86.9006   14.0026 C.3     1  UNL1        0.0932
      7 C          63.3753   87.2177   12.7945 C.3     1  UNL1        0.1390
      8 H          65.4142   85.3058   14.4156 H       1  UNL1        0.1237
      9 C          60.2551   87.0600    8.3798 C.ar    1  UNL1        0.1386
     10 C          59.8641   87.6028    9.7224 C.ar    1  UNL1        0.0382
     11 C          60.6947   87.2856   10.9305 C.ar    1  UNL1        0.0180
     12 C          61.9163   86.4257   10.7960 C.ar    1  UNL1        0.0542
     13 C          62.3073   85.8829    9.4535 C.ar    1  UNL1        0.0180
     14 C          61.4767   86.2001    8.2454 C.ar    1  UNL1        0.0382
     15 O          59.4245   87.3772    7.1717 O.3     1  UNL1       -0.4754
     16 C          58.8195   88.7407    7.0144 C.3     1  UNL1        0.2080
     17 C          59.4391   89.7322    6.0747 C.3     1  UNL1        0.0794
     18 C          58.6597   90.9356    5.6333 C.3     1  UNL1        0.1465
     19 O          58.8637   91.4981    4.2578 O.3     1  UNL1       -0.3488
     20 C          59.9023   92.5552    4.0263 C.3     1  UNL1        0.1716
     21 C          61.8795   92.5585    2.3409 C.ar    1  UNL1        0.1370
     22 C          62.4072   92.8012    0.9579 C.ar    1  UNL1        0.0367
     23 C          61.4854   93.2835   -0.1226 C.ar    1  UNL1        0.0031
     24 C          60.0359   93.5230    0.1798 C.ar    1  UNL1       -0.0000
     25 C          59.5082   93.2803    1.5628 C.ar    1  UNL1        0.0012
     26 C          60.4300   92.7980    2.6433 C.ar    1  UNL1        0.0413
     27 C          63.4626   90.7352    3.3000 C.3     1  UNL1        0.2525
     28 O          62.8014   92.0761    3.4214 O.3     1  UNL1       -0.4717
     29 C          63.1731   88.6442   12.3768 C.3     1  UNL1        0.2267
     30 O          62.7299   89.6646   13.3829 O.3     1  UNL1       -0.4736
     31 C          63.7491   90.4639   14.1395 C.ar    1  UNL1        0.1398
     32 C          63.5302   90.7777   15.5898 C.ar    1  UNL1        0.0367
     33 C          64.5495   91.5769   16.3464 C.ar    1  UNL1        0.0001
     34 C          65.7876   92.0623   15.6525 C.ar    1  UNL1       -0.0086
     35 C          66.0065   91.7485   14.2022 C.ar    1  UNL1        0.0469
     36 C          64.9873   90.9493   13.4456 C.ar    1  UNL1        0.0511
     37 N          67.2446   92.2340   13.5084 N.pl3   1  UNL1       -0.3059
     38 C          68.2638   93.0332   14.2649 C.3     1  UNL1        0.0912
     39 C          68.0450   93.3470   15.7153 C.3     1  UNL1        0.0261
     40 C          66.8069   92.8616   16.4092 C.3     1  UNL1        0.0294
     41 C          67.4635   91.9202   12.0580 C.3     1  UNL1        0.1123
     42 C          66.5500   92.4999   11.0190 C.3     1  UNL1        0.1148
     43 N          66.7320   93.9189   10.5680 N.am    1  UNL1       -0.2760
     44 C          66.1646   95.0434   11.3826 C.3     1  UNL1        0.1149
     45 C          67.4812   94.2133    9.3023 C.2     1  UNL1        0.2262
     46 C          67.6632   95.6323    8.8513 C.3     1  UNL1        0.0948
     47 O          68.0486   93.0888    8.4877 O.2     1  UNL1       -0.2749
@<TRIPOS>BOND
     1    27    28    1
     2    28    21    1
     3    21    22   ar
     4    22    23   ar
     5    23    24   ar
     6    24    25   ar
     7    25    26   ar
     8    26    20    1
     9    20    19    1
    10    19    18    1
    11    18    17    1
    12    17    16    1
    13    16    15    1
    14    15     9    1
    15     9    10   ar
    16    10    11   ar
    17    11    12   ar
    18    12     1    1
    19     1     2   am
    20     2     3    2
    21     2     4    1
    22     4     5    1
    23     5     6    1
    24     6     7    1
    25     7    29    1
    26    29    30    1
    27    30    31    1
    28    31    32   ar
    29    32    33   ar
    30    33    34   ar
    31    34    35   ar
    32    35    36   ar
    33    35    37    1
    34    37    41    1
    35    41    42    1
    36    42    43    1
    37    43    44    1
    38    43    45   am
    39    45    46    1
    40    45    47    2
    41    37    38    1
    42    38    39    1
    43    39    40    1
    44    12    13   ar
    45    13    14   ar
    46    26    21   ar
    47    14     9   ar
    48     7     1    1
    49    36    31   ar
    50    40    34    1
    51     5     8    1
@<TRIPOS>MOLECULE
*****
 47 51 0 0 0
SMALL
GASTEIGER

@<TRIPOS>ATOM
      1 N          65.0387   91.3337   13.0886 N.am    1  UNL1       -0.2541
      2 C          66.4379   91.8717   13.1399 C.2     1  UNL1        0.2456
      3 O          67.3044   91.5955   14.3329 O.2     1  UNL1       -0.2730
      4 C          66.9707   92.6859   11.9984 C.3     1  UNL1        0.1555
      5 N          66.1044   92.9621   10.8055 N.3     1  UNL1       -0.2883
      6 C          64.7051   92.4241   10.7541 C.3     1  UNL1        0.0932
      7 C          64.1723   91.6099   11.8957 C.3     1  UNL1        0.1390
      8 H          66.5939   92.5874    9.9929 H       1  UNL1        0.1237
      9 C          63.4401   88.8912   16.5133 C.ar    1  UNL1        0.1386
     10 C          64.0515   88.2081   15.3260 C.ar    1  UNL1        0.0382
     11 C          64.5843   89.0223   14.1844 C.ar    1  UNL1        0.0180
     12 C          64.5058   90.5195   14.2302 C.ar    1  UNL1        0.0542
     13 C          63.8945   91.2026   15.4174 C.ar    1  UNL1        0.0180
     14 C          63.3616   90.3884   16.5590 C.ar    1  UNL1        0.0382
     15 O          62.9073   88.0770   17.6548 O.3     1  UNL1       -0.4754
     16 C          62.1057   86.8386   17.3830 C.3     1  UNL1        0.2080
     17 C          62.8026   85.5484   17.0671 C.3     1  UNL1        0.0794
     18 C          62.5231   84.8423   15.7735 C.3     1  UNL1        0.1465
     19 O          62.9265   83.4080   15.5996 O.3     1  UNL1       -0.3488
     20 C          64.1083   83.0597   14.7441 C.3     1  UNL1        0.1716
     21 C          63.0220   81.5509   12.9293 C.ar    1  UNL1        0.1370
     22 C          62.8237   81.1923   11.4864 C.ar    1  UNL1        0.0367
     23 C          63.5133   81.9841   10.4152 C.ar    1  UNL1        0.0031
     24 C          64.4012   83.1345   10.7870 C.ar    1  UNL1       -0.0000
     25 C          64.5996   83.4930   12.2299 C.ar    1  UNL1        0.0012
     26 C          63.9100   82.7012   13.3011 C.ar    1  UNL1        0.0413
     27 C          60.8341   80.7046   14.0459 C.3     1  UNL1        0.2525
     28 O          62.3324   80.7590   14.0005 O.3     1  UNL1       -0.4717
     29 C          62.7730   91.0719   11.8443 C.3     1  UNL1        0.2267
     30 O          62.4794   89.6951   12.3620 O.3     1  UNL1       -0.4736
     31 C          62.1377   88.5912   11.4055 C.ar    1  UNL1        0.1398
     32 C          62.6552   87.2039   11.6455 C.ar    1  UNL1        0.0367
     33 C          62.3136   86.1001   10.6890 C.ar    1  UNL1        0.0001
     34 C          61.4545   86.3836    9.4925 C.ar    1  UNL1       -0.0086
     35 C          60.9370   87.7709    9.2525 C.ar    1  UNL1        0.0469
     36 C          61.2786   88.8747   10.2090 C.ar    1  UNL1        0.0511
     37 N          60.0779   88.0544    8.0560 N.pl3   1  UNL1       -0.3059
     38 C          59.7363   86.9506    7.0995 C.3     1  UNL1        0.0912
     39 C          60.2538   85.5632    7.3395 C.3     1  UNL1        0.0261
     40 C          61.1129   85.2797    8.5360 C.3     1  UNL1        0.0294
     41 C          59.5605   89.4416    7.8160 C.3     1  UNL1        0.1123
     42 C          58.7874   89.7483    6.5676 C.3     1  UNL1        0.1148
     43 N          59.3721   90.6576    5.5277 N.am    1  UNL1       -0.2760
     44 C          60.8396   90.6018    5.2221 C.3     1  UNL1        0.1149
     45 C          58.4893   91.6228    4.7935 C.2     1  UNL1        0.2262
     46 C          59.0740   92.5321    3.7536 C.3     1  UNL1        0.0948
     47 O          57.0219   91.6786    5.0991 O.2     1  UNL1       -0.2749
@<TRIPOS>BOND
     1    27    28    1
     2    28    21    1
     3    21    22   ar
     4    22    23   ar
     5    23    24   ar
     6    24    25   ar
     7    25    26   ar
     8    26    20    1
     9    20    19    1
    10    19    18    1
    11    18    17    1
    12    17    16    1
    13    16    15    1
    14    15     9    1
    15     9    10   ar
    16    10    11   ar
    17    11    12   ar
    18    12     1    1
    19     1     2   am
    20     2     3    2
    21     2     4    1
    22     4     5    1
    23     5     6    1
    24     6     7    1
    25     7    29    1
    26    29    30    1
    27    30    31    1
    28    31    32   ar
    29    32    33   ar
    30    33    34   ar
    31    34    35   ar
    32    35    36   ar
    33    35    37    1
    34    37    41    1
    35    41    42    1
    36    42    43    1
    37    43    44    1
    38    43    45   am
    39    45    46    1
    40    45    47    2
    41    37    38    1
    42    38    39    1
    43    39    40    1
    44    12    13   ar
    45    13    14   ar
    46    26    21   ar
    47    14     9   ar
    48     7     1    1
    49    36    31   ar
    50    40    34    1
    51     5     8    1
@<TRIPOS>MOLECULE
*****
 47 51 0 0 0
SMALL
GASTEIGER

@<TRIPOS>ATOM
      1 N          63.2641   81.9990   12.5376 N.am    1  UNL1       -0.2541
      2 C          62.8607   80.6614   13.0835 C.2     1  UNL1        0.2456
      3 O          62.6887   80.4756   14.5620 O.2     1  UNL1       -0.2730
      4 C          62.6293   79.5096   12.1509 C.3     1  UNL1        0.1555
      5 N          62.8013   79.6953   10.6725 N.3     1  UNL1       -0.2883
      6 C          63.2046   81.0329   10.1266 C.3     1  UNL1        0.0932
      7 C          63.4360   82.1848   11.0592 C.3     1  UNL1        0.1390
      8 H          61.9085   79.4579   10.2401 H       1  UNL1        0.1237
      9 C          63.9582   85.4546   15.3354 C.ar    1  UNL1        0.1386
     10 C          65.0884   84.9239   14.5041 C.ar    1  UNL1        0.0382
     11 C          64.8570   83.7721   13.5715 C.ar    1  UNL1        0.0180
     12 C          63.4954   83.1509   13.4702 C.ar    1  UNL1        0.0542
     13 C          62.3653   83.6816   14.3015 C.ar    1  UNL1        0.0180
     14 C          62.5967   84.8334   15.2341 C.ar    1  UNL1        0.0382
     15 O          64.1896   86.6064   16.2679 O.3     1  UNL1       -0.4754
     16 C          63.0233   87.3774   16.8114 C.3     1  UNL1        0.2080
     17 C          63.0163   88.8757   16.7409 C.3     1  UNL1        0.0794
     18 C          63.3012   89.5667   15.4403 C.3     1  UNL1        0.1465
     19 O          64.0471   90.8681   15.4301 O.3     1  UNL1       -0.3488
     20 C          65.3604   90.9741   14.7133 C.3     1  UNL1        0.1716
     21 C          66.6002   92.4071   12.9358 C.ar    1  UNL1        0.1370
     22 C          66.6589   93.0087   11.5630 C.ar    1  UNL1        0.0367
     23 C          65.5365   92.7790   10.5948 C.ar    1  UNL1        0.0031
     24 C          64.3554   91.9476   10.9995 C.ar    1  UNL1       -0.0000
     25 C          64.2967   91.3460   12.3723 C.ar    1  UNL1        0.0012
     26 C          65.4191   91.5757   13.3404 C.ar    1  UNL1        0.0413
     27 C          67.5209   93.5383   15.0858 C.3     1  UNL1        0.2525
     28 O          67.7226   92.6370   13.9040 O.3     1  UNL1       -0.4717
     29 C          63.8394   83.5225   10.5132 C.3     1  UNL1        0.2267
     30 O          62.8591   84.3358    9.7211 O.3     1  UNL1       -0.4736
     31 C          62.4408   85.6909   10.2098 C.ar    1  UNL1        0.1398
     32 C          62.9041   86.1809   11.5497 C.ar    1  UNL1        0.0367
     33 C          62.4858   87.5359   12.0383 C.ar    1  UNL1        0.0001
     34 C          61.6043   88.4010   11.1871 C.ar    1  UNL1       -0.0086
     35 C          61.1410   87.9110    9.8473 C.ar    1  UNL1        0.0469
     36 C          61.5593   86.5560    9.3586 C.ar    1  UNL1        0.0511
     37 N          60.2595   88.7761    8.9961 N.pl3   1  UNL1       -0.3059
     38 C          59.8412   90.1311    9.4847 C.3     1  UNL1        0.0912
     39 C          60.3044   90.6212   10.8246 C.3     1  UNL1        0.0261
     40 C          61.1860   89.7561   11.6759 C.3     1  UNL1        0.0294
     41 C          59.7962   88.2861    7.6562 C.3     1  UNL1        0.1123
     42 C          58.7289   89.0329    6.9125 C.3     1  UNL1        0.1148
     43 N          59.1054   90.1279    5.9589 N.am    1  UNL1       -0.2760
     44 C          60.5500   90.3947    5.6560 C.3     1  UNL1        0.1149
     45 C          58.0373   90.9560    5.3083 C.2     1  UNL1        0.2262
     46 C          58.4138   92.0510    4.3548 C.3     1  UNL1        0.0948
     47 O          56.5926   90.6892    5.6113 O.2     1  UNL1       -0.2749
@<TRIPOS>BOND
     1    27    28    1
     2    28    21    1
     3    21    22   ar
     4    22    23   ar
     5    23    24   ar
     6    24    25   ar
     7    25    26   ar
     8    26    20    1
     9    20    19    1
    10    19    18    1
    11    18    17    1
    12    17    16    1
    13    16    15    1
    14    15     9    1
    15     9    10   ar
    16    10    11   ar
    17    11    12   ar
    18    12     1    1
    19     1     2   am
    20     2     3    2
    21     2     4    1
    22     4     5    1
    23     5     6    1
    24     6     7    1
    25     7    29    1
    26    29    30    1
    27    30    31    1
    28    31    32   ar
    29    32    33   ar
    30    33    34   ar
    31    34    35   ar
    32    35    36   ar
    33    35    37    1
    34    37    41    1
    35    41    42    1
    36    42    43    1
    37    43    44    1
    38    43    45   am
    39    45    46    1
    40    45    47    2
    41    37    38    1
    42    38    39    1
    43    39    40    1
    44    12    13   ar
    45    13    14   ar
    46    26    21   ar
    47    14     9   ar
    48     7     1    1
    49    36    31   ar
    50    40    34    1
    51     5     8    1
@<TRIPOS>MOLECULE
*****
 47 51 0 0 0
SMALL
GASTEIGER

@<TRIPOS>ATOM
      1 N          64.1844   91.2150   12.3793 N.am    1  UNL1       -0.2541
      2 C          64.9815   92.3603   11.8292 C.2     1  UNL1        0.2456
      3 O          64.6507   92.9244   10.4792 O.2     1  UNL1       -0.2730
      4 C          66.1094   92.9418   12.6290 C.3     1  UNL1        0.1555
      5 N          66.4402   92.3778   13.9790 N.3     1  UNL1       -0.2883
      6 C          65.6431   91.2324   14.5291 C.3     1  UNL1        0.0932
      7 C          64.5152   90.6510   13.7293 C.3     1  UNL1        0.1390
      8 H          66.3548   93.1438   14.6471 H       1  UNL1        0.1237
      9 C          60.8006   89.4707    9.9798 C.ar    1  UNL1        0.1386
     10 C          60.5086   90.3036   11.1926 C.ar    1  UNL1        0.0382
     11 C          61.6366   90.8850   11.9925 C.ar    1  UNL1        0.0180
     12 C          63.0564   90.6336   11.5795 C.ar    1  UNL1        0.0542
     13 C          63.3484   89.8007   10.3667 C.ar    1  UNL1        0.0180
     14 C          62.2205   89.2193    9.5668 C.ar    1  UNL1        0.0382
     15 O          59.6727   88.8893    9.1800 O.3     1  UNL1       -0.4754
     16 C          59.7988   88.7578    7.6911 C.3     1  UNL1        0.2080
     17 C          59.0675   89.7077    6.7896 C.3     1  UNL1        0.0794
     18 C          59.7625   90.2952    5.5970 C.3     1  UNL1        0.1465
     19 O          59.0433   91.2738    4.7167 O.3     1  UNL1       -0.3488
     20 C          59.7195   92.5465    4.3011 C.3     1  UNL1        0.1716
     21 C          61.6682   92.2125    2.6156 C.ar    1  UNL1        0.1370
     22 C          62.2241   92.3484    1.2290 C.ar    1  UNL1        0.0367
     23 C          61.3873   92.9539    0.1414 C.ar    1  UNL1        0.0031
     24 C          59.9945   93.4237    0.4404 C.ar    1  UNL1       -0.0000
     25 C          59.4386   93.2879    1.8270 C.ar    1  UNL1        0.0012
     26 C          60.2754   92.6823    2.9145 C.ar    1  UNL1        0.0413
     27 C          63.6382   90.6881    3.3540 C.3     1  UNL1        0.2525
     28 O          62.5052   91.6069    3.7032 O.3     1  UNL1       -0.4717
     29 C          63.7181   89.5055   14.2795 C.3     1  UNL1        0.2267
     30 O          64.4070   88.4042   15.0294 O.3     1  UNL1       -0.4736
     31 C          64.1933   86.9750   14.6269 C.ar    1  UNL1        0.1398
     32 C          64.6568   85.8659   15.5241 C.ar    1  UNL1        0.0367
     33 C          64.4431   84.4368   15.1217 C.ar    1  UNL1        0.0001
     34 C          63.7660   84.1169   13.8220 C.ar    1  UNL1       -0.0086
     35 C          63.3025   85.2260   12.9248 C.ar    1  UNL1        0.0469
     36 C          63.5162   86.6551   13.3273 C.ar    1  UNL1        0.0511
     37 N          62.6254   84.9060   11.6251 N.pl3   1  UNL1       -0.3059
     38 C          62.4118   83.4770   11.2226 C.3     1  UNL1        0.0912
     39 C          62.8752   82.3677   12.1198 C.3     1  UNL1        0.0261
     40 C          63.5523   82.6877   13.4195 C.3     1  UNL1        0.0294
     41 C          62.1620   86.0152   10.7279 C.3     1  UNL1        0.1123
     42 C          61.3632   85.7007    9.4978 C.3     1  UNL1        0.1148
     43 N          62.0578   85.2457    8.2485 N.am    1  UNL1       -0.2760
     44 C          63.5398   85.0143    8.2563 C.3     1  UNL1        0.1149
     45 C          61.2703   85.0223    6.9916 C.2     1  UNL1        0.2262
     46 C          61.9649   84.5673    5.7423 C.3     1  UNL1        0.0948
     47 O          59.7883   85.2537    6.9839 O.2     1  UNL1       -0.2749
@<TRIPOS>BOND
     1    27    28    1
     2    28    21    1
     3    21    22   ar
     4    22    23   ar
     5    23    24   ar
     6    24    25   ar
     7    25    26   ar
     8    26    20    1
     9    20    19    1
    10    19    18    1
    11    18    17    1
    12    17    16    1
    13    16    15    1
    14    15     9    1
    15     9    10   ar
    16    10    11   ar
    17    11    12   ar
    18    12     1    1
    19     1     2   am
    20     2     3    2
    21     2     4    1
    22     4     5    1
    23     5     6    1
    24     6     7    1
    25     7    29    1
    26    29    30    1
    27    30    31    1
    28    31    32   ar
    29    32    33   ar
    30    33    34   ar
    31    34    35   ar
    32    35    36   ar
    33    35    37    1
    34    37    41    1
    35    41    42    1
    36    42    43    1
    37    43    44    1
    38    43    45   am
    39    45    46    1
    40    45    47    2
    41    37    38    1
    42    38    39    1
    43    39    40    1
    44    12    13   ar
    45    13    14   ar
    46    26    21   ar
    47    14     9   ar
    48     7     1    1
    49    36    31   ar
    50    40    34    1
    51     5     8    1
@<TRIPOS>MOLECULE
*****
 47 51 0 0 0
SMALL
GASTEIGER

@<TRIPOS>ATOM
      1 N          63.4099   83.2355   13.1779 N.am    1  UNL1       -0.2541
      2 C          62.7433   82.2683   14.1108 C.2     1  UNL1        0.2456
      3 O          62.4099   82.6866   15.5122 O.2     1  UNL1       -0.2730
      4 C          62.4100   80.8829   13.6422 C.3     1  UNL1        0.1555
      5 N          62.7434   80.4646   12.2408 N.3     1  UNL1       -0.2883
      6 C          63.4100   81.4318   11.3080 C.3     1  UNL1        0.0932
      7 C          63.7433   82.8172   11.7766 C.3     1  UNL1        0.1390
      8 H          61.8665   80.1871   11.7999 H       1  UNL1        0.1237
      9 C          64.4097   87.3917   14.5836 C.ar    1  UNL1        0.1386
     10 C          63.4730   87.1957   13.4286 C.ar    1  UNL1        0.0382
     11 C          63.1397   85.8102   12.9600 C.ar    1  UNL1        0.0180
     12 C          63.7432   84.6209   13.6465 C.ar    1  UNL1        0.0542
     13 C          64.6799   84.8170   14.8015 C.ar    1  UNL1        0.0180
     14 C          65.0132   86.2024   15.2700 C.ar    1  UNL1        0.0382
     15 O          64.7430   88.7772   15.0521 O.3     1  UNL1       -0.4754
     16 C          64.6485   89.9335   14.1013 C.3     1  UNL1        0.2080
     17 C          65.0622   91.3052   14.5453 C.3     1  UNL1        0.0794
     18 C          66.5098   91.6976   14.5181 C.3     1  UNL1        0.1465
     19 O          67.0579   92.4614   13.3493 O.3     1  UNL1       -0.3488
     20 C          66.2493   92.5918   12.0927 C.3     1  UNL1        0.1716
     21 C          66.5803   94.2713   10.1384 C.ar    1  UNL1        0.1370
     22 C          67.2504   94.6510    8.8512 C.ar    1  UNL1        0.0367
     23 C          68.2597   93.7307    8.2313 C.ar    1  UNL1        0.0031
     24 C          68.5989   92.4308    8.8985 C.ar    1  UNL1       -0.0000
     25 C          67.9287   92.0512   10.1856 C.ar    1  UNL1        0.0012
     26 C          66.9194   92.9715   10.8056 C.ar    1  UNL1        0.0413
     27 C          66.0271   96.3673   11.5706 C.3     1  UNL1        0.2525
     28 O          65.5709   95.1917   10.7583 O.3     1  UNL1       -0.4717
     29 C          64.4099   83.7844   10.8437 C.3     1  UNL1        0.2267
     30 O          64.1790   83.6807    9.3652 O.3     1  UNL1       -0.4736
     31 C          63.0565   84.4433    8.7261 C.ar    1  UNL1        0.1398
     32 C          62.7577   84.2568    7.2681 C.ar    1  UNL1        0.0367
     33 C          61.6352   85.0194    6.6290 C.ar    1  UNL1        0.0001
     34 C          60.8115   85.9685    7.4480 C.ar    1  UNL1       -0.0086
     35 C          61.1103   86.1550    8.9060 C.ar    1  UNL1        0.0469
     36 C          62.2328   85.3924    9.5451 C.ar    1  UNL1        0.0511
     37 N          60.2866   87.1041    9.7250 N.pl3   1  UNL1       -0.3059
     38 C          59.1642   87.8667    9.0859 C.3     1  UNL1        0.0912
     39 C          58.8653   87.6802    7.6278 C.3     1  UNL1        0.0261
     40 C          59.6890   86.7311    6.8089 C.3     1  UNL1        0.0294
     41 C          60.5854   87.2906   11.1830 C.3     1  UNL1        0.1123
     42 C          60.2638   88.5931   11.8539 C.3     1  UNL1        0.1148
     43 N          60.7691   89.8806   11.2734 N.am    1  UNL1       -0.2760
     44 C          59.8505   91.0602   11.1521 C.3     1  UNL1        0.1149
     45 C          62.1930   89.9886   10.8144 C.2     1  UNL1        0.2262
     46 C          62.6984   91.2761   10.2339 C.3     1  UNL1        0.0948
     47 O          63.1117   88.8090   10.9357 O.2     1  UNL1       -0.2749
@<TRIPOS>BOND
     1    27    28    1
     2    28    21    1
     3    21    22   ar
     4    22    23   ar
     5    23    24   ar
     6    24    25   ar
     7    25    26   ar
     8    26    20    1
     9    20    19    1
    10    19    18    1
    11    18    17    1
    12    17    16    1
    13    16    15    1
    14    15     9    1
    15     9    10   ar
    16    10    11   ar
    17    11    12   ar
    18    12     1    1
    19     1     2   am
    20     2     3    2
    21     2     4    1
    22     4     5    1
    23     5     6    1
    24     6     7    1
    25     7    29    1
    26    29    30    1
    27    30    31    1
    28    31    32   ar
    29    32    33   ar
    30    33    34   ar
    31    34    35   ar
    32    35    36   ar
    33    35    37    1
    34    37    41    1
    35    41    42    1
    36    42    43    1
    37    43    44    1
    38    43    45   am
    39    45    46    1
    40    45    47    2
    41    37    38    1
    42    38    39    1
    43    39    40    1
    44    12    13   ar
    45    13    14   ar
    46    26    21   ar
    47    14     9   ar
    48     7     1    1
    49    36    31   ar
    50    40    34    1
    51     5     8    1
