@<TRIPOS>MOLECULE
*****
 16 18 0 0 0
SMALL
GASTEIGER

@<TRIPOS>ATOM
      1 O          64.5872   89.9982   13.5246 O.3     1  UNL1       -0.4724
      2 CL         62.6776   86.5003   18.0099 Cl      1  UNL1       -0.0613
      3 C          63.1550   87.3748   16.8886 C.ar    1  UNL1        0.1386
      4 C          62.9884   88.8630   16.9749 C.ar    1  UNL1        0.0339
      5 C          63.4658   89.7374   15.8536 C.ar    1  UNL1        0.0410
      6 C          64.1098   89.1238   14.6459 C.ar    1  UNL1        0.1578
      7 C          64.2764   87.6356   14.5595 C.ar    1  UNL1        0.1366
      8 N          63.7990   86.7611   15.6808 N.ar    1  UNL1       -0.2293
      9 C          64.6880   91.4818   13.7213 C.3     1  UNL1        0.2210
     10 C          65.9210   92.0748   14.3362 C.3     1  UNL1        0.0983
     11 C          67.1646   91.3265   14.7149 C.3     1  UNL1        0.0209
     12 C          68.1390   92.3094   15.2932 C.3     1  UNL1        0.0172
     13 C          68.8861   93.5008   15.8151 C.3     1  UNL1        0.0171
     14 C          67.4976   93.6652   15.2719 C.3     1  UNL1        0.0541
     15 N          66.1268   93.5203   14.6804 N.3     1  UNL1       -0.2966
     16 H          66.0510   94.0908   13.8384 H       1  UNL1        0.1233
@<TRIPOS>BOND
     1     2     3    1
     2     3     4   ar
     3     4     5   ar
     4     5     6   ar
     5     6     1    1
     6     1     9    1
     7    10     9    1
     8    10    11    1
     9    12    11    1
    10    12    13    1
    11    14    13    1
    12    14    15    1
    13     6     7   ar
    14     7     8   ar
    15     8     3   ar
    16    15    10    1
    17    14    12    1
    18    15    16    1
@<TRIPOS>MOLECULE
*****
 16 18 0 0 0
SMALL
GASTEIGER

@<TRIPOS>ATOM
      1 O          63.9099   91.7239   12.9784 O.3     1  UNL1       -0.4724
      2 CL         61.7223   87.0043    9.9886 Cl      1  UNL1       -0.0613
      3 C          62.2692   88.1842   10.7361 C.ar    1  UNL1        0.1386
      4 C          62.2115   89.5523   10.1238 C.ar    1  UNL1        0.0339
      5 C          62.7584   90.7322   10.8712 C.ar    1  UNL1        0.0410
      6 C          63.3630   90.5440   12.2310 C.ar    1  UNL1        0.1578
      7 C          63.4207   89.1759   12.8433 C.ar    1  UNL1        0.1366
      8 N          62.8738   87.9960   12.0958 N.ar    1  UNL1       -0.2293
      9 C          65.2229   92.3255   12.5732 C.3     1  UNL1        0.2210
     10 C          66.2946   92.5473   13.5990 C.3     1  UNL1        0.0983
     11 C          67.6353   91.8754   13.6328 C.3     1  UNL1        0.0209
     12 C          68.3832   92.3928   14.8257 C.3     1  UNL1        0.0172
     13 C          68.8721   93.0807   16.0657 C.3     1  UNL1        0.0171
     14 C          67.5048   93.3845   15.5291 C.3     1  UNL1        0.0541
     15 N          66.2139   93.4800   14.7710 N.3     1  UNL1       -0.2966
     16 H          66.0746   94.4360   14.4437 H       1  UNL1        0.1233
@<TRIPOS>BOND
     1     2     3    1
     2     3     4   ar
     3     4     5   ar
     4     5     6   ar
     5     6     1    1
     6     1     9    1
     7    10     9    1
     8    10    11    1
     9    12    11    1
    10    12    13    1
    11    14    13    1
    12    14    15    1
    13     6     7   ar
    14     7     8   ar
    15     8     3   ar
    16    15    10    1
    17    14    12    1
    18    15    16    1
@<TRIPOS>MOLECULE
*****
 16 18 0 0 0
SMALL
GASTEIGER

@<TRIPOS>ATOM
      1 O          66.0939   92.0646   12.7342 O.3     1  UNL1       -0.4724
      2 CL         67.7220   95.9303    8.4440 Cl      1  UNL1       -0.0613
      3 C          67.3149   94.9638    9.5166 C.ar    1  UNL1        0.1386
      4 C          67.6045   93.5008    9.3570 C.ar    1  UNL1        0.0339
      5 C          67.1974   92.5343   10.4296 C.ar    1  UNL1        0.0410
      6 C          66.5009   93.0310   11.6617 C.ar    1  UNL1        0.1578
      7 C          66.2114   94.4941   11.8212 C.ar    1  UNL1        0.1366
      8 N          66.6184   95.4605   10.7487 N.ar    1  UNL1       -0.2293
      9 C          64.6772   91.5769   12.8061 C.3     1  UNL1        0.2210
     10 C          64.2227   90.7637   13.9817 C.3     1  UNL1        0.0983
     11 C          64.3442   89.2754   14.1241 C.3     1  UNL1        0.0209
     12 C          63.7635   88.8878   15.4517 C.3     1  UNL1        0.0172
     13 C          63.1296   88.8078   16.8088 C.3     1  UNL1        0.0171
     14 C          63.2830   90.1365   16.1298 C.3     1  UNL1        0.0541
     15 N          63.5668   91.2959   15.2214 N.3     1  UNL1       -0.2966
     16 H          64.1901   91.9558   15.6867 H       1  UNL1        0.1233
@<TRIPOS>BOND
     1     2     3    1
     2     3     4   ar
     3     4     5   ar
     4     5     6   ar
     5     6     1    1
     6     1     9    1
     7    10     9    1
     8    10    11    1
     9    12    11    1
    10    12    13    1
    11    14    13    1
    12    14    15    1
    13     6     7   ar
    14     7     8   ar
    15     8     3   ar
    16    15    10    1
    17    14    12    1
    18    15    16    1
@<TRIPOS>MOLECULE
*****
 16 18 0 0 0
SMALL
GASTEIGER

@<TRIPOS>ATOM
      1 O          64.2967   91.9593   13.2500 O.3     1  UNL1       -0.4724
      2 CL         61.8596   87.5383   10.0074 Cl      1  UNL1       -0.0613
      3 C          62.4689   88.6435   10.8180 C.ar    1  UNL1        0.1386
      4 C          62.6001   90.0183   10.2327 C.ar    1  UNL1        0.0339
      5 C          63.2094   91.1236   11.0434 C.ar    1  UNL1        0.0410
      6 C          63.6874   90.8541   12.4393 C.ar    1  UNL1        0.1578
      7 C          63.5562   89.4793   13.0246 C.ar    1  UNL1        0.1366
      8 N          62.9469   88.3740   12.2140 N.ar    1  UNL1       -0.2293
      9 C          65.7535   92.2839   13.1003 C.3     1  UNL1        0.2210
     10 C          66.2219   93.1129   11.9412 C.3     1  UNL1        0.0983
     11 C          66.9655   92.6086   10.7400 C.3     1  UNL1        0.0209
     12 C          67.2322   93.7756    9.8363 C.3     1  UNL1        0.0172
     13 C          67.3486   95.1063    9.1538 C.3     1  UNL1        0.0171
     14 C          66.6535   95.0013   10.4789 C.3     1  UNL1        0.0541
     15 N          66.0291   94.5917   11.7799 N.3     1  UNL1       -0.2966
     16 H          65.0332   94.8119   11.7703 H       1  UNL1        0.1233
@<TRIPOS>BOND
     1     2     3    1
     2     3     4   ar
     3     4     5   ar
     4     5     6   ar
     5     6     1    1
     6     1     9    1
     7    10     9    1
     8    10    11    1
     9    12    11    1
    10    12    13    1
    11    14    13    1
    12    14    15    1
    13     6     7   ar
    14     7     8   ar
    15     8     3   ar
    16    15    10    1
    17    14    12    1
    18    15    16    1
@<TRIPOS>MOLECULE
*****
 16 18 0 0 0
SMALL
GASTEIGER

@<TRIPOS>ATOM
      1 O          61.6691   86.0062   12.0242 O.3     1  UNL1       -0.4724
      2 CL         59.4044   88.8351    7.2422 Cl      1  UNL1       -0.0613
      3 C          59.9706   88.1279    8.4377 C.ar    1  UNL1        0.1386
      4 C          60.5118   86.7358    8.2989 C.ar    1  UNL1        0.0339
      5 C          61.0780   86.0286    9.4944 C.ar    1  UNL1        0.0410
      6 C          61.1029   86.7134   10.8287 C.ar    1  UNL1        0.1578
      7 C          60.5617   88.1054   10.9675 C.ar    1  UNL1        0.1366
      8 N          59.9956   88.8127    9.7720 N.ar    1  UNL1       -0.2293
      9 C          62.8233   85.0623   11.8603 C.3     1  UNL1        0.2210
     10 C          62.7272   83.6613   12.3876 C.3     1  UNL1        0.0983
     11 C          62.8848   82.4042   11.5846 C.3     1  UNL1        0.0209
     12 C          62.7116   81.2374   12.5112 C.3     1  UNL1        0.0172
     13 C          62.4960   80.2922   13.6558 C.3     1  UNL1        0.0171
     14 C          62.4469   81.7734   13.8870 C.3     1  UNL1        0.0541
     15 N          62.4565   83.2715   13.8106 N.3     1  UNL1       -0.2966
     16 H          63.1873   83.6443   14.4167 H       1  UNL1        0.1233
@<TRIPOS>BOND
     1     2     3    1
     2     3     4   ar
     3     4     5   ar
     4     5     6   ar
     5     6     1    1
     6     1     9    1
     7    10     9    1
     8    10    11    1
     9    12    11    1
    10    12    13    1
    11    14    13    1
    12    14    15    1
    13     6     7   ar
    14     7     8   ar
    15     8     3   ar
    16    15    10    1
    17    14    12    1
    18    15    16    1
@<TRIPOS>MOLECULE
*****
 16 18 0 0 0
SMALL
GASTEIGER

@<TRIPOS>ATOM
      1 O          60.7486   87.3263   11.1315 O.3     1  UNL1       -0.4724
      2 CL         62.0355   84.5154    5.9892 Cl      1  UNL1       -0.0613
      3 C          61.7138   85.2181    7.2748 C.ar    1  UNL1        0.1386
      4 C          62.7531   85.3264    8.3508 C.ar    1  UNL1        0.0339
      5 C          62.4314   86.0291    9.6364 C.ar    1  UNL1        0.0410
      6 C          61.0703   86.6236    9.8459 C.ar    1  UNL1        0.1578
      7 C          60.0309   86.5153    8.7699 C.ar    1  UNL1        0.1366
      8 N          60.3527   85.8126    7.4843 N.ar    1  UNL1       -0.2293
      9 C          60.6170   88.8203   11.1570 C.3     1  UNL1        0.2210
     10 C          61.7909   89.6701   11.5440 C.3     1  UNL1        0.0983
     11 C          62.6885   90.4156   10.6014 C.3     1  UNL1        0.0209
     12 C          63.7257   91.1299   11.4164 C.3     1  UNL1        0.0172
     13 C          64.6139   91.7138   12.4746 C.3     1  UNL1        0.0171
     14 C          63.4690   90.8259   12.8626 C.3     1  UNL1        0.0541
     15 N          62.2732   89.9237   12.9416 N.3     1  UNL1       -0.2966
     16 H          61.5365   90.3722   13.4860 H       1  UNL1        0.1233
@<TRIPOS>BOND
     1     2     3    1
     2     3     4   ar
     3     4     5   ar
     4     5     6   ar
     5     6     1    1
     6     1     9    1
     7    10     9    1
     8    10    11    1
     9    12    11    1
    10    12    13    1
    11    14    13    1
    12    14    15    1
    13     6     7   ar
    14     7     8   ar
    15     8     3   ar
    16    15    10    1
    17    14    12    1
    18    15    16    1
@<TRIPOS>MOLECULE
*****
 16 18 0 0 0
SMALL
GASTEIGER

@<TRIPOS>ATOM
      1 O          62.8823   85.5970   12.7152 O.3     1  UNL1       -0.4724
      2 CL         62.3302   79.6855   13.5804 Cl      1  UNL1       -0.0613
      3 C          62.4682   81.1634   13.3641 C.ar    1  UNL1        0.1386
      4 C          62.6786   81.7024   11.9802 C.ar    1  UNL1        0.0339
      5 C          62.8166   83.1803   11.7639 C.ar    1  UNL1        0.0410
      6 C          62.7442   84.1192   12.9315 C.ar    1  UNL1        0.1578
      7 C          62.5339   83.5801   14.3154 C.ar    1  UNL1        0.1366
      8 N          62.3959   82.1022   14.5317 N.ar    1  UNL1       -0.2293
      9 C          62.1385   86.2640   11.5963 C.3     1  UNL1        0.2210
     10 C          62.3922   87.7089   11.2835 C.3     1  UNL1        0.0983
     11 C          62.1205   88.3884    9.9742 C.3     1  UNL1        0.0209
     12 C          62.5224   89.8275   10.1065 C.3     1  UNL1        0.0172
     13 C          63.0022   91.1837   10.5313 C.3     1  UNL1        0.0171
     14 C          63.0426   90.0374   11.4977 C.3     1  UNL1        0.0541
     15 N          62.9621   88.7280   12.2252 N.3     1  UNL1       -0.2966
     16 H          62.3572   88.8219   13.0411 H       1  UNL1        0.1233
@<TRIPOS>BOND
     1     2     3    1
     2     3     4   ar
     3     4     5   ar
     4     5     6   ar
     5     6     1    1
     6     1     9    1
     7    10     9    1
     8    10    11    1
     9    12    11    1
    10    12    13    1
    11    14    13    1
    12    14    15    1
    13     6     7   ar
    14     7     8   ar
    15     8     3   ar
    16    15    10    1
    17    14    12    1
    18    15    16    1
@<TRIPOS>MOLECULE
*****
 16 18 0 0 0
SMALL
GASTEIGER

@<TRIPOS>ATOM
      1 O          62.6269   85.7843    9.6151 O.3     1  UNL1       -0.4724
      2 CL         63.9226   81.2654   13.3434 Cl      1  UNL1       -0.0613
      3 C          63.5987   82.3951   12.4113 C.ar    1  UNL1        0.1386
      4 C          64.0936   82.3648   10.9957 C.ar    1  UNL1        0.0339
      5 C          63.7696   83.4946   10.0636 C.ar    1  UNL1        0.0410
      6 C          62.9508   84.6546   10.5472 C.ar    1  UNL1        0.1578
      7 C          62.4559   84.6848   11.9628 C.ar    1  UNL1        0.1366
      8 N          62.7798   83.5551   12.8949 N.ar    1  UNL1       -0.2293
      9 C          61.2016   86.2067    9.4154 C.3     1  UNL1        0.2210
     10 C          60.7086   87.4902   10.0152 C.3     1  UNL1        0.0983
     11 C          60.6070   88.8107    9.3109 C.3     1  UNL1        0.0209
     12 C          60.0663   89.8151   10.2850 C.3     1  UNL1        0.0172
     13 C          59.5232   90.5768   11.4575 C.3     1  UNL1        0.0171
     14 C          59.8338   89.1154   11.5912 C.3     1  UNL1        0.0541
     15 N          60.2307   87.6785   11.4246 N.3     1  UNL1       -0.2966
     16 H          59.4278   87.0748   11.6014 H       1  UNL1        0.1233
@<TRIPOS>BOND
     1     2     3    1
     2     3     4   ar
     3     4     5   ar
     4     5     6   ar
     5     6     1    1
     6     1     9    1
     7    10     9    1
     8    10    11    1
     9    12    11    1
    10    12    13    1
    11    14    13    1
    12    14    15    1
    13     6     7   ar
    14     7     8   ar
    15     8     3   ar
    16    15    10    1
    17    14    12    1
    18    15    16    1
@<TRIPOS>MOLECULE
*****
 16 18 0 0 0
SMALL
GASTEIGER

@<TRIPOS>ATOM
      1 O          64.0968   91.2269   11.9975 O.3     1  UNL1       -0.4724
      2 CL         68.1682   93.6833   15.6567 Cl      1  UNL1       -0.0613
      3 C          67.1504   93.0692   14.7419 C.ar    1  UNL1        0.1386
      4 C          66.4555   91.8001   15.1373 C.ar    1  UNL1        0.0339
      5 C          65.4376   91.1860   14.2225 C.ar    1  UNL1        0.0410
      6 C          65.1147   91.8410   12.9123 C.ar    1  UNL1        0.1578
      7 C          65.8096   93.1102   12.5170 C.ar    1  UNL1        0.1366
      8 N          66.8274   93.7243   13.4317 N.ar    1  UNL1       -0.2293
      9 C          63.1525   90.1843   12.5183 C.3     1  UNL1        0.2210
     10 C          62.7586   89.0276   11.6484 C.3     1  UNL1        0.0983
     11 C          62.3390   89.1084   10.2106 C.3     1  UNL1        0.0209
     12 C          62.0362   87.7177    9.7371 C.3     1  UNL1        0.0172
     13 C          61.8113   86.2457    9.5564 C.3     1  UNL1        0.0171
     14 C          62.2687   86.7773   10.8823 C.3     1  UNL1        0.0541
     15 N          62.7152   87.5868   12.0636 N.3     1  UNL1       -0.2966
     16 H          63.6429   87.2838   12.3601 H       1  UNL1        0.1233
@<TRIPOS>BOND
     1     2     3    1
     2     3     4   ar
     3     4     5   ar
     4     5     6   ar
     5     6     1    1
     6     1     9    1
     7    10     9    1
     8    10    11    1
     9    12    11    1
    10    12    13    1
    11    14    13    1
    12    14    15    1
    13     6     7   ar
    14     7     8   ar
    15     8     3   ar
    16    15    10    1
    17    14    12    1
    18    15    16    1
