@<TRIPOS>MOLECULE
*****
 26 29 0 0 0
SMALL
GASTEIGER

@<TRIPOS>ATOM
      1 C          66.8566   92.5674   14.2270 C.2     1  UNL1        0.0919
      2 C          66.7086   93.4579   13.0291 C.2     1  UNL1        0.0183
      3 C          65.6629   93.1582   11.9964 C.2     1  UNL1        0.0511
      4 C          64.7651   91.9680   12.1615 C.2     1  UNL1        0.2322
      5 N          63.6522   91.4251   11.3150 N.2     1  UNL1       -0.0295
      6 C          63.1123   90.1990   11.9897 C.2     1  UNL1        0.3932
      7 N          63.8916   89.9841   13.2533 N.2     1  UNL1       -0.0333
      8 C          64.9131   91.0775   13.3594 C.2     1  UNL1        0.2192
      9 C          65.9588   91.3772   14.3922 C.3     1  UNL1        0.1226
     10 C          61.9902   89.3387   11.4888 C.ar    1  UNL1        0.1694
     11 C          62.2375   88.3486   10.3895 C.ar    1  UNL1        0.0270
     12 C          61.1154   87.4884    9.8885 C.ar    1  UNL1        0.0033
     13 C          59.7461   87.6183   10.4869 C.ar    1  UNL1        0.0207
     14 C          59.4988   88.6085   11.5862 C.ar    1  UNL1        0.0991
     15 N          60.6209   89.4687   12.0871 N.ar    1  UNL1       -0.2361
     16 C          61.3627   86.4982    8.7892 C.ar    1  UNL1        0.0001
     17 C          62.7082   85.8496    8.6527 C.ar    1  UNL1        0.0000
     18 C          62.9555   84.8594    7.5534 C.ar    1  UNL1        0.0000
     19 C          61.8572   84.5179    6.5907 C.ar    1  UNL1        0.0000
     20 C          60.5116   85.1665    6.7272 C.ar    1  UNL1        0.0000
     21 C          60.2643   86.1566    7.8265 C.ar    1  UNL1        0.0000
     22 S          67.9024   92.8671   15.2598 S.O2    1  UNL1        0.0054
     23 O          68.9723   92.7223   14.2185 O.2     1  UNL1       -0.1689
     24 O          66.8325   93.0119   16.3011 O.2     1  UNL1       -0.1689
     25 C          69.5655   94.5321   16.3605 C.3     1  UNL1        0.0276
     26 C          68.9481   93.1668   16.2925 C.3     1  UNL1        0.1556
@<TRIPOS>BOND
     1    25    26    1
     2    26    22    1
     3    22    23    2
     4    22    24    2
     5    22     1    1
     6     1     2    2
     7     2     3    1
     8     3     4    2
     9     4     5    1
    10     5     6    2
    11     6    10    1
    12    10    11   ar
    13    11    12   ar
    14    12    16    1
    15    16    17   ar
    16    17    18   ar
    17    18    19   ar
    18    19    20   ar
    19    20    21   ar
    20    12    13   ar
    21    13    14   ar
    22    14    15   ar
    23     6     7    1
    24     7     8    2
    25     8     9    1
    26     9     1    1
    27     8     4    1
    28    15    10   ar
    29    21    16   ar
@<TRIPOS>MOLECULE
*****
 26 29 0 0 0
SMALL
GASTEIGER

@<TRIPOS>ATOM
      1 C          61.1039   86.7642    8.5820 C.2     1  UNL1        0.0919
      2 C          60.2431   87.9796    8.4043 C.2     1  UNL1        0.0183
      3 C          60.3094   89.0981    9.4016 C.2     1  UNL1        0.0511
      4 C          61.2366   89.0011   10.5767 C.2     1  UNL1        0.2322
      5 N          61.5162   89.9375   11.7146 N.2     1  UNL1       -0.0295
      6 C          62.5498   89.3008   12.5957 C.2     1  UNL1        0.3932
      7 N          62.9091   87.9709   12.0023 N.2     1  UNL1       -0.0333
      8 C          62.0974   87.7856   10.7545 C.2     1  UNL1        0.2192
      9 C          62.0311   86.6672    9.7571 C.3     1  UNL1        0.1226
     10 C          63.1234   89.8906   13.8500 C.ar    1  UNL1        0.1694
     11 C          64.4713   90.5481   13.8213 C.ar    1  UNL1        0.0270
     12 C          65.0450   91.1379   15.0755 C.ar    1  UNL1        0.0033
     13 C          64.2707   91.0701   16.3584 C.ar    1  UNL1        0.0207
     14 C          62.9228   90.4126   16.3871 C.ar    1  UNL1        0.0991
     15 N          62.3492   89.8228   15.1329 N.ar    1  UNL1       -0.2361
     16 C          66.3929   91.7954   15.0468 C.ar    1  UNL1        0.0001
     17 C          66.7898   92.7405   16.1419 C.ar    1  UNL1        0.0000
     18 C          68.1377   93.3980   16.1132 C.ar    1  UNL1        0.0000
     19 C          69.0887   93.1104   14.9894 C.ar    1  UNL1        0.0000
     20 C          68.6918   92.1653   13.8944 C.ar    1  UNL1        0.0000
     21 C          67.3439   91.5078   13.9231 C.ar    1  UNL1        0.0000
     22 S          61.0375   85.6457    7.5847 S.O2    1  UNL1        0.0054
     23 O          59.6028   85.9812    7.3040 O.2     1  UNL1       -0.1689
     24 O          62.4723   85.3102    7.8655 O.2     1  UNL1       -0.1689
     25 C          62.0681   84.3557    5.5788 C.3     1  UNL1        0.0276
     26 C          60.9712   84.5273    6.5874 C.3     1  UNL1        0.1556
@<TRIPOS>BOND
     1    25    26    1
     2    26    22    1
     3    22    23    2
     4    22    24    2
     5    22     1    1
     6     1     2    2
     7     2     3    1
     8     3     4    2
     9     4     5    1
    10     5     6    2
    11     6    10    1
    12    10    11   ar
    13    11    12   ar
    14    12    16    1
    15    16    17   ar
    16    17    18   ar
    17    18    19   ar
    18    19    20   ar
    19    20    21   ar
    20    12    13   ar
    21    13    14   ar
    22    14    15   ar
    23     6     7    1
    24     7     8    2
    25     8     9    1
    26     9     1    1
    27     8     4    1
    28    15    10   ar
    29    21    16   ar
@<TRIPOS>MOLECULE
*****
 26 29 0 0 0
SMALL
GASTEIGER

@<TRIPOS>ATOM
      1 C          63.3951   82.1815   12.2761 C.2     1  UNL1        0.0919
      2 C          63.6773   81.7077   13.6710 C.2     1  UNL1        0.0183
      3 C          63.8681   82.7028   14.7770 C.2     1  UNL1        0.0511
      4 C          63.7766   84.1719   14.4881 C.2     1  UNL1        0.2322
      5 N          63.9182   85.3785   15.3678 N.2     1  UNL1       -0.0295
      6 C          63.7236   86.5982   14.5166 C.2     1  UNL1        0.3932
      7 N          63.4616   86.1454   13.1108 N.2     1  UNL1       -0.0333
      8 C          63.4944   84.6457   13.0932 C.2     1  UNL1        0.2192
      9 C          63.3036   83.6506   11.9872 C.3     1  UNL1        0.1226
     10 C          63.7809   88.0210   14.9884 C.ar    1  UNL1        0.1694
     11 C          64.3754   89.0798   14.1078 C.ar    1  UNL1        0.0270
     12 C          64.4327   90.5025   14.5796 C.ar    1  UNL1        0.0033
     13 C          63.8955   90.8664   15.9319 C.ar    1  UNL1        0.0207
     14 C          63.3010   89.8076   16.8125 C.ar    1  UNL1        0.0991
     15 N          63.2437   88.3849   16.3408 N.ar    1  UNL1       -0.2361
     16 C          65.0272   91.5613   13.6989 C.ar    1  UNL1        0.0001
     17 C          65.9966   92.5538   14.2692 C.ar    1  UNL1        0.0000
     18 C          66.5911   93.6126   13.3886 C.ar    1  UNL1        0.0000
     19 C          66.2162   93.6789   11.9377 C.ar    1  UNL1        0.0000
     20 C          65.2469   92.6864   11.3675 C.ar    1  UNL1        0.0000
     21 C          64.6523   91.6276   12.2481 C.ar    1  UNL1        0.0000
     22 S          63.2044   81.1864   11.1701 S.O2    1  UNL1        0.0054
     23 O          63.7082   82.1924   10.1780 O.2     1  UNL1       -0.1689
     24 O          62.7007   80.1804   12.1621 O.2     1  UNL1       -0.1689
     25 C          62.7118   78.7582   10.3883 C.3     1  UNL1        0.0276
     26 C          63.0137   80.1912   10.0640 C.3     1  UNL1        0.1556
@<TRIPOS>BOND
     1    25    26    1
     2    26    22    1
     3    22    23    2
     4    22    24    2
     5    22     1    1
     6     1     2    2
     7     2     3    1
     8     3     4    2
     9     4     5    1
    10     5     6    2
    11     6    10    1
    12    10    11   ar
    13    11    12   ar
    14    12    16    1
    15    16    17   ar
    16    17    18   ar
    17    18    19   ar
    18    19    20   ar
    19    20    21   ar
    20    12    13   ar
    21    13    14   ar
    22    14    15   ar
    23     6     7    1
    24     7     8    2
    25     8     9    1
    26     9     1    1
    27     8     4    1
    28    15    10   ar
    29    21    16   ar
@<TRIPOS>MOLECULE
*****
 26 29 0 0 0
SMALL
GASTEIGER

@<TRIPOS>ATOM
      1 C          66.6415   92.6712   14.4254 C.2     1  UNL1        0.0919
      2 C          66.2688   93.5314   13.2545 C.2     1  UNL1        0.0183
      3 C          65.2975   93.0240   12.2302 C.2     1  UNL1        0.0511
      4 C          64.6990   91.6565   12.3768 C.2     1  UNL1        0.2322
      5 N          63.7218   90.8928   11.5330 N.2     1  UNL1       -0.0295
      6 C          63.4906   89.5606   12.1825 C.2     1  UNL1        0.3932
      7 N          64.3249   89.5009   13.4276 N.2     1  UNL1       -0.0333
      8 C          65.0717   90.7963   13.5477 C.2     1  UNL1        0.2192
      9 C          66.0430   91.3037   14.5720 C.3     1  UNL1        0.1226
     10 C          62.5843   88.4781   11.6757 C.ar    1  UNL1        0.1694
     11 C          63.0262   87.0455   11.7255 C.ar    1  UNL1        0.0270
     12 C          62.1199   85.9630   11.2187 C.ar    1  UNL1        0.0033
     13 C          60.7717   86.3131   10.6622 C.ar    1  UNL1        0.0207
     14 C          60.3298   87.7457   10.6124 C.ar    1  UNL1        0.0991
     15 N          61.2361   88.8281   11.1192 N.ar    1  UNL1       -0.2361
     16 C          62.5618   84.5305   11.2685 C.ar    1  UNL1        0.0001
     17 C          62.1785   83.6674   12.4339 C.ar    1  UNL1        0.0000
     18 C          62.6204   82.2348   12.4837 C.ar    1  UNL1        0.0000
     19 C          63.4456   81.6653   11.3681 C.ar    1  UNL1        0.0000
     20 C          63.8289   82.5284   10.2027 C.ar    1  UNL1        0.0000
     21 C          63.3870   83.9609   10.1529 C.ar    1  UNL1        0.0000
     22 S          67.6128   93.1785   15.4497 S.O2    1  UNL1        0.0054
     23 O          66.5217   93.1891   16.4791 O.2     1  UNL1       -0.1689
     24 O          68.7038   93.1679   14.4204 O.2     1  UNL1       -0.1689
     25 C          69.5841   94.7400   16.1019 C.3     1  UNL1        0.0276
     26 C          68.5840   93.6859   16.4741 C.3     1  UNL1        0.1556
@<TRIPOS>BOND
     1    25    26    1
     2    26    22    1
     3    22    23    2
     4    22    24    2
     5    22     1    1
     6     1     2    2
     7     2     3    1
     8     3     4    2
     9     4     5    1
    10     5     6    2
    11     6    10    1
    12    10    11   ar
    13    11    12   ar
    14    12    16    1
    15    16    17   ar
    16    17    18   ar
    17    18    19   ar
    18    19    20   ar
    19    20    21   ar
    20    12    13   ar
    21    13    14   ar
    22    14    15   ar
    23     6     7    1
    24     7     8    2
    25     8     9    1
    26     9     1    1
    27     8     4    1
    28    15    10   ar
    29    21    16   ar
@<TRIPOS>MOLECULE
*****
 26 29 0 0 0
SMALL
GASTEIGER

@<TRIPOS>ATOM
      1 C          65.6198   91.8015   13.8323 C.2     1  UNL1        0.0919
      2 C          64.7412   91.8493   12.6176 C.2     1  UNL1        0.0183
      3 C          63.9198   90.6527   12.2385 C.2     1  UNL1        0.0511
      4 C          63.9771   89.4085   13.0742 C.2     1  UNL1        0.2322
      5 N          63.2861   88.0830   12.9496 N.2     1  UNL1       -0.0295
      6 C          63.7376   87.2160   14.0874 C.2     1  UNL1        0.3932
      7 N          64.7078   88.0057   14.9152 N.2     1  UNL1       -0.0333
      8 C          64.8557   89.3607   14.2890 C.2     1  UNL1        0.2192
      9 C          65.6771   90.5572   14.6680 C.3     1  UNL1        0.1226
     10 C          63.2965   85.8067   14.3510 C.ar    1  UNL1        0.1694
     11 C          63.3865   84.7769   13.2641 C.ar    1  UNL1        0.0270
     12 C          62.9453   83.3677   13.5277 C.ar    1  UNL1        0.0033
     13 C          62.4142   82.9883   14.8782 C.ar    1  UNL1        0.0207
     14 C          62.3242   84.0182   15.9651 C.ar    1  UNL1        0.0991
     15 N          62.7653   85.4273   15.7015 N.ar    1  UNL1       -0.2361
     16 C          63.0353   82.3379   12.4407 C.ar    1  UNL1        0.0001
     17 C          63.5990   82.7087   11.1011 C.ar    1  UNL1        0.0000
     18 C          63.6890   81.6789   10.0142 C.ar    1  UNL1        0.0000
     19 C          63.2153   80.2783   10.2669 C.ar    1  UNL1        0.0000
     20 C          62.6517   79.9075   11.6065 C.ar    1  UNL1        0.0000
     21 C          62.5616   80.9373   12.6935 C.ar    1  UNL1        0.0000
     22 S          66.4412   92.9980   14.2114 S.O2    1  UNL1        0.0054
     23 O          66.9611   93.0860   12.8071 O.2     1  UNL1       -0.1689
     24 O          65.9213   92.9101   15.6156 O.2     1  UNL1       -0.1689
     25 C          68.3155   94.0757   15.6521 C.3     1  UNL1        0.0276
     26 C          67.2626   94.1946   14.5904 C.3     1  UNL1        0.1556
@<TRIPOS>BOND
     1    25    26    1
     2    26    22    1
     3    22    23    2
     4    22    24    2
     5    22     1    1
     6     1     2    2
     7     2     3    1
     8     3     4    2
     9     4     5    1
    10     5     6    2
    11     6    10    1
    12    10    11   ar
    13    11    12   ar
    14    12    16    1
    15    16    17   ar
    16    17    18   ar
    17    18    19   ar
    18    19    20   ar
    19    20    21   ar
    20    12    13   ar
    21    13    14   ar
    22    14    15   ar
    23     6     7    1
    24     7     8    2
    25     8     9    1
    26     9     1    1
    27     8     4    1
    28    15    10   ar
    29    21    16   ar
@<TRIPOS>MOLECULE
*****
 26 29 0 0 0
SMALL
GASTEIGER

@<TRIPOS>ATOM
      1 C          63.9511   94.5427    0.0439 C.2     1  UNL1        0.0919
      2 C          64.9629   93.6359    0.6793 C.2     1  UNL1        0.0183
      3 C          64.5464   92.6955    1.7711 C.2     1  UNL1        0.0511
      4 C          63.1179   92.6618    2.2275 C.2     1  UNL1        0.2322
      5 N          62.4175   91.8467    3.2739 N.2     1  UNL1       -0.0295
      6 C          60.9726   92.2497    3.2852 C.2     1  UNL1        0.3932
      7 N          60.7801   93.3139    2.2458 N.2     1  UNL1       -0.0333
      8 C          62.1060   93.5685    1.5921 C.2     1  UNL1        0.2192
      9 C          62.5226   94.5090    0.5003 C.3     1  UNL1        0.1226
     10 C          59.9074   91.6873    4.1791 C.ar    1  UNL1        0.1694
     11 C          60.2650   90.6756    5.2273 C.ar    1  UNL1        0.0270
     12 C          59.1998   90.1132    6.1211 C.ar    1  UNL1        0.0033
     13 C          57.7770   90.5624    5.9668 C.ar    1  UNL1        0.0207
     14 C          57.4194   91.5740    4.9185 C.ar    1  UNL1        0.0991
     15 N          58.4846   92.1364    4.0247 N.ar    1  UNL1       -0.2361
     16 C          59.5574   89.1016    7.1694 C.ar    1  UNL1        0.0001
     17 C          60.2356   89.5393    8.4337 C.ar    1  UNL1        0.0000
     18 C          60.5932   88.5277    9.4819 C.ar    1  UNL1        0.0000
     19 C          60.2726   87.0784    9.2658 C.ar    1  UNL1        0.0000
     20 C          59.5945   86.6407    8.0015 C.ar    1  UNL1        0.0000
     21 C          59.2369   87.6523    6.9533 C.ar    1  UNL1        0.0000
     22 S          64.3676   95.4831   -1.0479 S.O2    1  UNL1        0.0054
     23 O          65.7360   95.5813   -0.4412 O.2     1  UNL1       -0.1689
     24 O          62.9993   95.3850   -1.6545 O.2     1  UNL1       -0.1689
     25 C          64.9971   95.9087   -3.5323 C.3     1  UNL1        0.0276
     26 C          64.7842   96.4236   -2.1397 C.3     1  UNL1        0.1556
@<TRIPOS>BOND
     1    25    26    1
     2    26    22    1
     3    22    23    2
     4    22    24    2
     5    22     1    1
     6     1     2    2
     7     2     3    1
     8     3     4    2
     9     4     5    1
    10     5     6    2
    11     6    10    1
    12    10    11   ar
    13    11    12   ar
    14    12    16    1
    15    16    17   ar
    16    17    18   ar
    17    18    19   ar
    18    19    20   ar
    19    20    21   ar
    20    12    13   ar
    21    13    14   ar
    22    14    15   ar
    23     6     7    1
    24     7     8    2
    25     8     9    1
    26     9     1    1
    27     8     4    1
    28    15    10   ar
    29    21    16   ar
@<TRIPOS>MOLECULE
*****
 26 29 0 0 0
SMALL
GASTEIGER

@<TRIPOS>ATOM
      1 C          59.3789   89.3537    7.0217 C.2     1  UNL1        0.0919
      2 C          59.0201   87.8989    7.0912 C.2     1  UNL1        0.0183
      3 C          59.5835   87.0388    8.1834 C.2     1  UNL1        0.0511
      4 C          60.5057   87.6335    9.2060 C.2     1  UNL1        0.2322
      5 N          61.2106   87.0382   10.3887 N.2     1  UNL1       -0.0295
      6 C          62.0051   88.1251   11.0502 C.2     1  UNL1        0.3932
      7 N          61.7912   89.3921   10.2763 N.2     1  UNL1       -0.0333
      8 C          60.8645   89.0882    9.1365 C.2     1  UNL1        0.2192
      9 C          60.3011   89.9484    8.0444 C.3     1  UNL1        0.1226
     10 C          62.8629   87.9718   12.2712 C.ar    1  UNL1        0.1694
     11 C          63.4116   89.1864   12.9595 C.ar    1  UNL1        0.0270
     12 C          64.2693   89.0332   14.1805 C.ar    1  UNL1        0.0033
     13 C          64.5783   87.6654   14.7131 C.ar    1  UNL1        0.0207
     14 C          64.0296   86.4509   14.0247 C.ar    1  UNL1        0.0991
     15 N          63.1719   86.6041   12.8038 N.ar    1  UNL1       -0.2361
     16 C          64.8180   90.2477   14.8688 C.ar    1  UNL1        0.0001
     17 C          64.0511   90.8856   15.9890 C.ar    1  UNL1        0.0000
     18 C          64.5998   92.1001   16.6774 C.ar    1  UNL1        0.0000
     19 C          65.9154   92.6768   16.2455 C.ar    1  UNL1        0.0000
     20 C          66.6824   92.0389   15.1253 C.ar    1  UNL1        0.0000
     21 C          66.1336   90.8244   14.4370 C.ar    1  UNL1        0.0000
     22 S          58.8154   90.2138    5.9296 S.O2    1  UNL1        0.0054
     23 O          60.2050   90.5965    5.5141 O.2     1  UNL1       -0.1689
     24 O          57.4259   89.8311    6.3451 O.2     1  UNL1       -0.1689
     25 C          59.0601   92.2109    4.2859 C.3     1  UNL1        0.0276
     26 C          58.2520   91.0739    4.8374 C.3     1  UNL1        0.1556
@<TRIPOS>BOND
     1    25    26    1
     2    26    22    1
     3    22    23    2
     4    22    24    2
     5    22     1    1
     6     1     2    2
     7     2     3    1
     8     3     4    2
     9     4     5    1
    10     5     6    2
    11     6    10    1
    12    10    11   ar
    13    11    12   ar
    14    12    16    1
    15    16    17   ar
    16    17    18   ar
    17    18    19   ar
    18    19    20   ar
    19    20    21   ar
    20    12    13   ar
    21    13    14   ar
    22    14    15   ar
    23     6     7    1
    24     7     8    2
    25     8     9    1
    26     9     1    1
    27     8     4    1
    28    15    10   ar
    29    21    16   ar
@<TRIPOS>MOLECULE
*****
 26 29 0 0 0
SMALL
GASTEIGER

@<TRIPOS>ATOM
      1 C          60.1519   88.8236    8.3369 C.2     1  UNL1        0.0919
      2 C          60.7229   87.4508    8.5355 C.2     1  UNL1        0.0183
      3 C          61.5639   87.1556    9.7419 C.2     1  UNL1        0.0511
      4 C          61.8341   88.2333   10.7497 C.2     1  UNL1        0.2322
      5 N          62.6207   88.2388   12.0269 N.2     1  UNL1       -0.0295
      6 C          62.5360   89.6149   12.6176 C.2     1  UNL1        0.3932
      7 N          61.6970   90.4600   11.7055 N.2     1  UNL1       -0.0333
      8 C          61.2632   89.6060   10.5511 C.2     1  UNL1        0.2192
      9 C          60.4221   89.9012    9.3446 C.3     1  UNL1        0.1226
     10 C          63.1776   90.0667   13.8961 C.ar    1  UNL1        0.1694
     11 C          64.5257   90.7237   13.8673 C.ar    1  UNL1        0.0270
     12 C          65.1674   91.1754   15.1456 C.ar    1  UNL1        0.0033
     13 C          64.4608   90.9702   16.4527 C.ar    1  UNL1        0.0207
     14 C          63.1126   90.3133   16.4815 C.ar    1  UNL1        0.0991
     15 N          62.4710   89.8615   15.2032 N.ar    1  UNL1       -0.2361
     16 C          66.5155   91.8324   15.1168 C.ar    1  UNL1        0.0001
     17 C          67.4624   91.5522   13.9877 C.ar    1  UNL1        0.0000
     18 C          68.8106   92.2092   13.9589 C.ar    1  UNL1        0.0000
     19 C          69.2119   93.1463   15.0592 C.ar    1  UNL1        0.0000
     20 C          68.2650   93.4265   16.1883 C.ar    1  UNL1        0.0000
     21 C          66.9168   92.7696   16.2171 C.ar    1  UNL1        0.0000
     22 S          59.3109   89.1187    7.1304 S.O2    1  UNL1        0.0054
     23 O          58.4282   87.9516    7.4603 O.2     1  UNL1       -0.1689
     24 O          60.1935   90.2858    6.8006 O.2     1  UNL1       -0.1689
     25 C          58.3359   90.8237    5.4298 C.3     1  UNL1        0.0276
     26 C          58.4698   89.4139    5.9240 C.3     1  UNL1        0.1556
@<TRIPOS>BOND
     1    25    26    1
     2    26    22    1
     3    22    23    2
     4    22    24    2
     5    22     1    1
     6     1     2    2
     7     2     3    1
     8     3     4    2
     9     4     5    1
    10     5     6    2
    11     6    10    1
    12    10    11   ar
    13    11    12   ar
    14    12    16    1
    15    16    17   ar
    16    17    18   ar
    17    18    19   ar
    18    19    20   ar
    19    20    21   ar
    20    12    13   ar
    21    13    14   ar
    22    14    15   ar
    23     6     7    1
    24     7     8    2
    25     8     9    1
    26     9     1    1
    27     8     4    1
    28    15    10   ar
    29    21    16   ar
@<TRIPOS>MOLECULE
*****
 26 29 0 0 0
SMALL
GASTEIGER

@<TRIPOS>ATOM
      1 C          72.5453   80.0351   11.1102 C.2     1  UNL1        0.0919
      2 C          72.8980   80.6643   12.4254 C.2     1  UNL1        0.0183
      3 C          72.8881   79.8394   13.6781 C.2     1  UNL1        0.0511
      4 C          72.5255   78.3852   13.6157 C.2     1  UNL1        0.2322
      5 N          72.4299   77.3282   14.6757 N.2     1  UNL1       -0.0295
      6 C          72.0182   76.0457   14.0156 C.2     1  UNL1        0.3932
      7 N          71.8593   76.3101   12.5477 N.2     1  UNL1       -0.0333
      8 C          72.1728   77.7560   12.3005 C.2     1  UNL1        0.2192
      9 C          72.1827   78.5810   11.0478 C.3     1  UNL1        0.1226
     10 C          71.8031   74.7298   14.7029 C.ar    1  UNL1        0.1694
     11 C          71.2346   73.5697   13.9407 C.ar    1  UNL1        0.0270
     12 C          71.0195   72.2539   14.6279 C.ar    1  UNL1        0.0033
     13 C          71.3729   72.0981   16.0772 C.ar    1  UNL1        0.0207
     14 C          71.9414   73.2582   16.8395 C.ar    1  UNL1        0.0991
     15 N          72.1565   74.5741   16.1523 N.ar    1  UNL1       -0.2361
     16 C          70.4510   71.0937   13.8656 C.ar    1  UNL1        0.0001
     17 C          70.8168   69.6912   14.2516 C.ar    1  UNL1        0.0000
     18 C          70.2483   68.5311   13.4894 C.ar    1  UNL1        0.0000
     19 C          69.3140   68.7735   12.3412 C.ar    1  UNL1        0.0000
     20 C          68.9483   70.1761   11.9552 C.ar    1  UNL1        0.0000
     21 C          69.5168   71.3362   12.7175 C.ar    1  UNL1        0.0000
     22 S          72.5552   80.8601    9.8575 S.O2    1  UNL1        0.0054
     23 O          72.9678   79.6541    9.0666 O.2     1  UNL1       -0.1689
     24 O          72.1426   82.0660   10.6483 O.2     1  UNL1       -0.1689
     25 C          71.8075   82.9785    8.5525 C.3     1  UNL1        0.0276
     26 C          72.5651   81.6850    8.6047 C.3     1  UNL1        0.1556
@<TRIPOS>BOND
     1    25    26    1
     2    26    22    1
     3    22    23    2
     4    22    24    2
     5    22     1    1
     6     1     2    2
     7     2     3    1
     8     3     4    2
     9     4     5    1
    10     5     6    2
    11     6    10    1
    12    10    11   ar
    13    11    12   ar
    14    12    16    1
    15    16    17   ar
    16    17    18   ar
    17    18    19   ar
    18    19    20   ar
    19    20    21   ar
    20    12    13   ar
    21    13    14   ar
    22    14    15   ar
    23     6     7    1
    24     7     8    2
    25     8     9    1
    26     9     1    1
    27     8     4    1
    28    15    10   ar
    29    21    16   ar
