@<TRIPOS>MOLECULE
*****
 24 26 0 0 0
SMALL
GASTEIGER

@<TRIPOS>ATOM
      1 C          63.8299   90.4500   13.0733 C.3     1  UNL1        0.0838
      2 C          63.0447   90.1244   11.8374 C.3     1  UNL1        0.0437
      3 C          62.8507   88.6377   11.7897 C.ar    1  UNL1       -0.0247
      4 C          62.1542   87.7476   10.8036 C.ar    1  UNL1       -0.0045
      5 C          62.1230   86.2642   11.0239 C.ar    1  UNL1        0.0012
      6 C          62.7884   85.6710   12.2303 C.ar    1  UNL1        0.0173
      7 C          63.4849   86.5612   13.2164 C.ar    1  UNL1       -0.0030
      8 C          63.5161   88.0445   12.9961 C.ar    1  UNL1       -0.0246
      9 C          64.1213   89.1646   13.7894 C.3     1  UNL1        0.0438
     10 C          62.7572   84.1875   12.4506 C.ar    1  UNL1        0.0815
     11 C          63.0723   83.2545   11.3192 C.ar    1  UNL1        0.0215
     12 C          63.0411   81.7711   11.5394 C.ar    1  UNL1        0.0328
     13 C          62.6948   81.2207   12.8912 C.ar    1  UNL1        0.1592
     14 F          62.6636   79.7373   13.1115 F       1  UNL1       -0.2025
     15 C          62.3797   82.1538   14.0226 C.ar    1  UNL1        0.1283
     16 N          62.4109   83.6372   13.8023 N.ar    1  UNL1       -0.2415
     17 N          64.2501   91.8204   13.5154 N.3     1  UNL1       -0.1841
     18 H          64.2032   92.4223   12.6933 H       1  UNL1        0.1484
     19 S          65.6033   92.0288   14.1281 S.O2    1  UNL1        0.0390
     20 O          66.2301   91.9600   12.7671 O.2     1  UNL1       -0.1576
     21 O          64.9765   92.0976   15.4891 O.2     1  UNL1       -0.1576
     22 C          68.1927   91.8966   13.9623 C.3     1  UNL1        0.0270
     23 C          66.9566   92.2372   14.7407 C.3     1  UNL1        0.1457
     24 C          67.0737   92.7862   16.1317 C.3     1  UNL1        0.0270
@<TRIPOS>BOND
     1    22    23    1
     2    23    24    1
     3    23    19    1
     4    19    20    2
     5    19    21    2
     6    19    17    1
     7     1    17    1
     8     1     2    1
     9     2     3    1
    10     3     4   ar
    11     4     5   ar
    12     5     6   ar
    13     6    10    1
    14    10    11   ar
    15    11    12   ar
    16    12    13   ar
    17    13    14    1
    18    13    15   ar
    19    15    16   ar
    20     6     7   ar
    21     7     8   ar
    22     8     9    1
    23     9     1    1
    24     8     3   ar
    25    16    10   ar
    26    17    18    1
@<TRIPOS>MOLECULE
*****
 24 26 0 0 0
SMALL
GASTEIGER

@<TRIPOS>ATOM
      1 C          63.6761   89.7528   13.2989 C.3     1  UNL1        0.0838
      2 C          64.3608   89.0914   14.4581 C.3     1  UNL1        0.0437
      3 C          64.2386   87.6066   14.2829 C.ar    1  UNL1       -0.0247
      4 C          64.7214   86.4549   15.1138 C.ar    1  UNL1       -0.0045
      5 C          64.4440   85.0469   14.6771 C.ar    1  UNL1        0.0012
      6 C          63.6838   84.7907   13.4096 C.ar    1  UNL1        0.0173
      7 C          63.2011   85.9425   12.5788 C.ar    1  UNL1       -0.0030
      8 C          63.4785   87.3504   13.0154 C.ar    1  UNL1       -0.0246
      9 C          63.1308   88.6768   12.4073 C.3     1  UNL1        0.0438
     10 C          63.4064   83.3827   12.9730 C.ar    1  UNL1        0.0815
     11 C          63.4576   83.0251   11.5172 C.ar    1  UNL1        0.0215
     12 C          63.1802   81.6170   11.0806 C.ar    1  UNL1        0.0328
     13 C          62.8516   80.5667   12.0999 C.ar    1  UNL1        0.1592
     14 F          62.5743   79.1587   11.6633 F       1  UNL1       -0.2025
     15 C          62.8005   80.9244   13.5557 C.ar    1  UNL1        0.1283
     16 N          63.0779   82.3324   13.9923 N.ar    1  UNL1       -0.2415
     17 N          63.5575   91.2307   13.0713 N.3     1  UNL1       -0.1841
     18 H          62.8179   91.3640   12.3817 H       1  UNL1        0.1484
     19 S          64.7437   92.0131   12.5909 S.O2    1  UNL1        0.0390
     20 O          64.3779   91.6957   11.1712 O.2     1  UNL1       -0.1576
     21 O          65.1094   92.3304   14.0105 O.2     1  UNL1       -0.1576
     22 C          66.5300   93.8587   12.9818 C.3     1  UNL1        0.0270
     23 C          65.9298   92.7955   12.1103 C.3     1  UNL1        0.1457
     24 C          66.5158   92.5147   10.7584 C.3     1  UNL1        0.0270
@<TRIPOS>BOND
     1    22    23    1
     2    23    24    1
     3    23    19    1
     4    19    20    2
     5    19    21    2
     6    19    17    1
     7     1    17    1
     8     1     2    1
     9     2     3    1
    10     3     4   ar
    11     4     5   ar
    12     5     6   ar
    13     6    10    1
    14    10    11   ar
    15    11    12   ar
    16    12    13   ar
    17    13    14    1
    18    13    15   ar
    19    15    16   ar
    20     6     7   ar
    21     7     8   ar
    22     8     9    1
    23     9     1    1
    24     8     3   ar
    25    16    10   ar
    26    17    18    1
@<TRIPOS>MOLECULE
*****
 24 26 0 0 0
SMALL
GASTEIGER

@<TRIPOS>ATOM
      1 C          61.4603   89.7361   11.0147 C.3     1  UNL1        0.0838
      2 C          62.2199   90.6584   10.1079 C.3     1  UNL1        0.0437
      3 C          63.4017   91.1853   10.8667 C.ar    1  UNL1       -0.0247
      4 C          64.5005   92.1312   10.4826 C.ar    1  UNL1       -0.0045
      5 C          65.5702   92.4805   11.4744 C.ar    1  UNL1        0.0012
      6 C          65.5411   91.8838   12.8503 C.ar    1  UNL1        0.0173
      7 C          64.4422   90.9378   13.2344 C.ar    1  UNL1       -0.0030
      8 C          63.3725   90.5885   12.2426 C.ar    1  UNL1       -0.0246
      9 C          62.1727   89.6929   12.3340 C.3     1  UNL1        0.0438
     10 C          66.6108   92.2331   13.8422 C.ar    1  UNL1        0.0815
     11 C          66.2364   92.6506   15.2333 C.ar    1  UNL1        0.0215
     12 C          67.3061   92.9999   16.2252 C.ar    1  UNL1        0.0328
     13 C          68.7504   92.9316   15.8257 C.ar    1  UNL1        0.1592
     14 F          69.8201   93.2809   16.8175 F       1  UNL1       -0.2025
     15 C          69.1248   92.5141   14.4345 C.ar    1  UNL1        0.1283
     16 N          68.0551   92.1648   13.4427 N.ar    1  UNL1       -0.2415
     17 N          60.2083   88.9883   10.6638 N.3     1  UNL1       -0.1841
     18 H          59.8732   88.5550   11.5242 H       1  UNL1        0.1484
     19 S          60.2459   87.9098    9.6220 S.O2    1  UNL1        0.0390
     20 O          59.7843   88.8930    8.5875 O.2     1  UNL1       -0.1576
     21 O          60.7074   86.9266   10.6565 O.2     1  UNL1       -0.1576
     22 C          61.4998   85.9647    8.4413 C.3     1  UNL1        0.0270
     23 C          60.2834   86.8313    8.5801 C.3     1  UNL1        0.1457
     24 C          59.1046   86.6195    7.6771 C.3     1  UNL1        0.0270
@<TRIPOS>BOND
     1    22    23    1
     2    23    24    1
     3    23    19    1
     4    19    20    2
     5    19    21    2
     6    19    17    1
     7     1    17    1
     8     1     2    1
     9     2     3    1
    10     3     4   ar
    11     4     5   ar
    12     5     6   ar
    13     6    10    1
    14    10    11   ar
    15    11    12   ar
    16    12    13   ar
    17    13    14    1
    18    13    15   ar
    19    15    16   ar
    20     6     7   ar
    21     7     8   ar
    22     8     9    1
    23     9     1    1
    24     8     3   ar
    25    16    10   ar
    26    17    18    1
@<TRIPOS>MOLECULE
*****
 24 26 0 0 0
SMALL
GASTEIGER

@<TRIPOS>ATOM
      1 C          61.8784   89.9194   10.3122 C.3     1  UNL1        0.0838
      2 C          61.9459   89.0706   11.5471 C.3     1  UNL1        0.0437
      3 C          63.0470   89.6026   12.4157 C.ar    1  UNL1       -0.0247
      4 C          63.5706   89.1668   13.7520 C.ar    1  UNL1       -0.0045
      5 C          64.7074   89.9087   14.3903 C.ar    1  UNL1        0.0012
      6 C          65.3205   91.0864   13.6923 C.ar    1  UNL1        0.0173
      7 C          64.7968   91.5221   12.3559 C.ar    1  UNL1       -0.0030
      8 C          63.6601   90.7802   11.7176 C.ar    1  UNL1       -0.0246
      9 C          62.9379   90.9760   10.4176 C.3     1  UNL1        0.0438
     10 C          66.4572   91.8282   14.3306 C.ar    1  UNL1        0.0815
     11 C          66.2702   92.4801   15.6685 C.ar    1  UNL1        0.0215
     12 C          67.4069   93.2220   16.3069 C.ar    1  UNL1        0.0328
     13 C          68.7307   93.3120   15.6073 C.ar    1  UNL1        0.1592
     14 F          69.8675   94.0538   16.2456 F       1  UNL1       -0.2025
     15 C          68.9178   92.6600   14.2693 C.ar    1  UNL1        0.1283
     16 N          67.7810   91.9182   13.6310 N.ar    1  UNL1       -0.2415
     17 N          60.9198   89.7427    9.1721 N.3     1  UNL1       -0.1841
     18 H          60.0425   90.1797    9.4546 H       1  UNL1        0.1484
     19 S          60.5802   88.3655    8.6844 S.O2    1  UNL1        0.0390
     20 O          61.8247   87.8305    9.3284 O.2     1  UNL1       -0.1576
     21 O          59.3356   88.9005    8.0404 O.2     1  UNL1       -0.1576
     22 C          58.8471   86.6780    7.7363 C.3     1  UNL1        0.0270
     23 C          60.2405   86.9882    8.1967 C.3     1  UNL1        0.1457
     24 C          61.2944   85.9211    8.1695 C.3     1  UNL1        0.0270
@<TRIPOS>BOND
     1    22    23    1
     2    23    24    1
     3    23    19    1
     4    19    20    2
     5    19    21    2
     6    19    17    1
     7     1    17    1
     8     1     2    1
     9     2     3    1
    10     3     4   ar
    11     4     5   ar
    12     5     6   ar
    13     6    10    1
    14    10    11   ar
    15    11    12   ar
    16    12    13   ar
    17    13    14    1
    18    13    15   ar
    19    15    16   ar
    20     6     7   ar
    21     7     8   ar
    22     8     9    1
    23     9     1    1
    24     8     3   ar
    25    16    10   ar
    26    17    18    1
@<TRIPOS>MOLECULE
*****
 24 26 0 0 0
SMALL
GASTEIGER

@<TRIPOS>ATOM
      1 C          62.3089   87.6009   11.7261 C.3     1  UNL1        0.0838
      2 C          62.2675   88.8410   10.8832 C.3     1  UNL1        0.0437
      3 C          63.1879   89.8519   11.5004 C.ar    1  UNL1       -0.0247
      4 C          63.5492   91.2532   11.1057 C.ar    1  UNL1       -0.0045
      5 C          64.5208   92.0392   11.9353 C.ar    1  UNL1        0.0012
      6 C          65.1310   91.4238   13.1596 C.ar    1  UNL1        0.0173
      7 C          64.7698   90.0226   13.5543 C.ar    1  UNL1       -0.0030
      8 C          63.7982   89.2366   12.7247 C.ar    1  UNL1       -0.0246
      9 C          63.2549   87.8454   12.8642 C.3     1  UNL1        0.0438
     10 C          66.1026   92.2099   13.9893 C.ar    1  UNL1        0.0815
     11 C          66.9685   91.5100   14.9944 C.ar    1  UNL1        0.0215
     12 C          67.9401   92.2960   15.8240 C.ar    1  UNL1        0.0328
     13 C          68.0458   93.7820   15.6485 C.ar    1  UNL1        0.1592
     14 F          69.0173   94.5680   16.4781 F       1  UNL1       -0.2025
     15 C          67.1798   94.4819   14.6433 C.ar    1  UNL1        0.1283
     16 N          66.2083   93.6958   13.8137 N.ar    1  UNL1       -0.2415
     17 N          61.5393   86.3381   11.4750 N.3     1  UNL1       -0.1841
     18 H          60.8887   86.2301   12.2531 H       1  UNL1        0.1484
     19 S          62.2652   85.0331   11.3332 S.O2    1  UNL1        0.0390
     20 O          62.0660   84.7635   12.7952 O.2     1  UNL1       -0.1576
     21 O          62.4644   85.3028    9.8712 O.2     1  UNL1       -0.1576
     22 C          63.8673   83.4829    9.9990 C.3     1  UNL1        0.0270
     23 C          62.9911   83.7281   11.1915 C.3     1  UNL1        0.1457
     24 C          62.8406   82.6682   12.2422 C.3     1  UNL1        0.0270
@<TRIPOS>BOND
     1    22    23    1
     2    23    24    1
     3    23    19    1
     4    19    20    2
     5    19    21    2
     6    19    17    1
     7     1    17    1
     8     1     2    1
     9     2     3    1
    10     3     4   ar
    11     4     5   ar
    12     5     6   ar
    13     6    10    1
    14    10    11   ar
    15    11    12   ar
    16    12    13   ar
    17    13    14    1
    18    13    15   ar
    19    15    16   ar
    20     6     7   ar
    21     7     8   ar
    22     8     9    1
    23     9     1    1
    24     8     3   ar
    25    16    10   ar
    26    17    18    1
@<TRIPOS>MOLECULE
*****
 24 26 0 0 0
SMALL
GASTEIGER

@<TRIPOS>ATOM
      1 C          63.3348   84.6027   14.3491 C.3     1  UNL1        0.0838
      2 C          62.7085   85.2291   13.1386 C.3     1  UNL1        0.0437
      3 C          63.1527   86.6603   13.0748 C.ar    1  UNL1       -0.0247
      4 C          62.8533   87.7618   12.1017 C.ar    1  UNL1       -0.0045
      5 C          63.4548   89.1215   12.2996 C.ar    1  UNL1        0.0012
      6 C          64.3558   89.3798   13.4708 C.ar    1  UNL1        0.0173
      7 C          64.6553   88.2783   14.4439 C.ar    1  UNL1       -0.0030
      8 C          64.0537   86.9186   14.2459 C.ar    1  UNL1       -0.0246
      9 C          64.1663   85.6469   15.0334 C.3     1  UNL1        0.0438
     10 C          64.9574   90.7396   13.6687 C.ar    1  UNL1        0.0815
     11 C          65.4172   91.1651   15.0316 C.ar    1  UNL1        0.0215
     12 C          66.0188   92.5250   15.2295 C.ar    1  UNL1        0.0328
     13 C          66.1605   93.4592   14.0645 C.ar    1  UNL1        0.1592
     14 F          66.7620   94.8189   14.2624 F       1  UNL1       -0.2025
     15 C          65.7006   93.0336   12.7016 C.ar    1  UNL1        0.1283
     16 N          65.0990   91.6738   12.5037 N.ar    1  UNL1       -0.2415
     17 N          63.1604   83.1817   14.7966 N.3     1  UNL1       -0.1841
     18 H          63.9939   82.9370   15.3313 H       1  UNL1        0.1484
     19 S          62.9622   82.0948   13.7821 S.O2    1  UNL1        0.0390
     20 O          61.5990   81.8191   14.3439 O.2     1  UNL1       -0.1576
     21 O          64.3253   82.3706   13.2203 O.2     1  UNL1       -0.1576
     22 C          63.0794   81.2631   11.3235 C.3     1  UNL1        0.0270
     23 C          62.7638   81.0079   12.7675 C.3     1  UNL1        0.1457
     24 C          62.2500   79.6657   13.1971 C.3     1  UNL1        0.0270
@<TRIPOS>BOND
     1    22    23    1
     2    23    24    1
     3    23    19    1
     4    19    20    2
     5    19    21    2
     6    19    17    1
     7     1    17    1
     8     1     2    1
     9     2     3    1
    10     3     4   ar
    11     4     5   ar
    12     5     6   ar
    13     6    10    1
    14    10    11   ar
    15    11    12   ar
    16    12    13   ar
    17    13    14    1
    18    13    15   ar
    19    15    16   ar
    20     6     7   ar
    21     7     8   ar
    22     8     9    1
    23     9     1    1
    24     8     3   ar
    25    16    10   ar
    26    17    18    1
@<TRIPOS>MOLECULE
*****
 24 26 0 0 0
SMALL
GASTEIGER

@<TRIPOS>ATOM
      1 C          61.2787   87.6517    9.8989 C.3     1  UNL1        0.0838
      2 C          61.4272   89.0122    9.2849 C.3     1  UNL1        0.0437
      3 C          62.2899   89.8385   10.1920 C.ar    1  UNL1       -0.0247
      4 C          62.7749   91.2550   10.1002 C.ar    1  UNL1       -0.0045
      5 C          63.6445   91.8216   11.1831 C.ar    1  UNL1        0.0012
      6 C          64.0291   90.9718   12.3578 C.ar    1  UNL1        0.0173
      7 C          63.5442   89.5554   12.4496 C.ar    1  UNL1       -0.0030
      8 C          62.6745   88.9888   11.3667 C.ar    1  UNL1       -0.0246
      9 C          62.0496   87.6372   11.1855 C.3     1  UNL1        0.0438
     10 C          64.8988   91.5385   13.4407 C.ar    1  UNL1        0.0815
     11 C          66.2220   92.1543   13.0946 C.ar    1  UNL1        0.0215
     12 C          67.0917   92.7211   14.1775 C.ar    1  UNL1        0.0328
     13 C          66.6381   92.6719   15.6064 C.ar    1  UNL1        0.1592
     14 F          67.5077   93.2386   16.6893 F       1  UNL1       -0.2025
     15 C          65.3148   92.0561   15.9524 C.ar    1  UNL1        0.1283
     16 N          64.4452   91.4894   14.8696 N.ar    1  UNL1       -0.2415
     17 N          60.4966   86.5068    9.3267 N.3     1  UNL1       -0.1841
     18 H          60.3288   85.8533   10.0917 H       1  UNL1        0.1484
     19 S          61.0606   85.7070    8.1899 S.O2    1  UNL1        0.0390
     20 O          59.7630   85.8436    7.4500 O.2     1  UNL1       -0.1576
     21 O          62.3582   85.5704    8.9298 O.2     1  UNL1       -0.1576
     22 C          60.7064   84.3088    6.0290 C.3     1  UNL1        0.0270
     23 C          61.6246   84.9072    7.0531 C.3     1  UNL1        0.1457
     24 C          63.1067   84.7059    6.9404 C.3     1  UNL1        0.0270
@<TRIPOS>BOND
     1    22    23    1
     2    23    24    1
     3    23    19    1
     4    19    20    2
     5    19    21    2
     6    19    17    1
     7     1    17    1
     8     1     2    1
     9     2     3    1
    10     3     4   ar
    11     4     5   ar
    12     5     6   ar
    13     6    10    1
    14    10    11   ar
    15    11    12   ar
    16    12    13   ar
    17    13    14    1
    18    13    15   ar
    19    15    16   ar
    20     6     7   ar
    21     7     8   ar
    22     8     9    1
    23     9     1    1
    24     8     3   ar
    25    16    10   ar
    26    17    18    1
@<TRIPOS>MOLECULE
*****
 24 26 0 0 0
SMALL
GASTEIGER

@<TRIPOS>ATOM
      1 C          45.7854   72.0664   17.9720 C.3     1  UNL1        0.0838
      2 C          47.0513   72.2108   18.7636 C.3     1  UNL1        0.0437
      3 C          47.2903   73.6738   18.9930 C.ar    1  UNL1       -0.0247
      4 C          48.3816   74.4122   19.7096 C.ar    1  UNL1       -0.0045
      5 C          48.3547   75.9105   19.7764 C.ar    1  UNL1        0.0012
      6 C          47.2365   76.6702   19.1266 C.ar    1  UNL1        0.0173
      7 C          46.1451   75.9318   18.4100 C.ar    1  UNL1       -0.0030
      8 C          46.1720   74.4335   18.3432 C.ar    1  UNL1       -0.0246
      9 C          45.2420   73.4401   17.7122 C.3     1  UNL1        0.0438
     10 C          47.2096   78.1686   19.1934 C.ar    1  UNL1        0.0815
     11 C          48.1631   78.9736   18.3612 C.ar    1  UNL1        0.0215
     12 C          48.1363   80.4719   18.4280 C.ar    1  UNL1        0.0328
     13 C          47.1558   81.1651   19.3271 C.ar    1  UNL1        0.1592
     14 F          47.1289   82.6633   19.3940 F       1  UNL1       -0.2025
     15 C          46.2023   80.3599   20.1593 C.ar    1  UNL1        0.1283
     16 N          46.2292   78.8617   20.0925 N.ar    1  UNL1       -0.2415
     17 N          45.1708   70.7750   17.5197 N.3     1  UNL1       -0.1841
     18 H          45.6972   70.0253   17.9684 H       1  UNL1        0.1484
     19 S          45.1087   70.4454   16.0577 S.O2    1  UNL1        0.0390
     20 O          43.6488   70.7898   16.0422 O.2     1  UNL1       -0.1576
     21 O          46.5685   70.1011   16.0733 O.2     1  UNL1       -0.1576
     22 C          43.8310   70.4803   13.7957 C.3     1  UNL1        0.0270
     23 C          45.0465   70.1159   14.5956 C.3     1  UNL1        0.1457
     24 C          46.1998   69.4221   13.9335 C.3     1  UNL1        0.0270
@<TRIPOS>BOND
     1    22    23    1
     2    23    24    1
     3    23    19    1
     4    19    20    2
     5    19    21    2
     6    19    17    1
     7     1    17    1
     8     1     2    1
     9     2     3    1
    10     3     4   ar
    11     4     5   ar
    12     5     6   ar
    13     6    10    1
    14    10    11   ar
    15    11    12   ar
    16    12    13   ar
    17    13    14    1
    18    13    15   ar
    19    15    16   ar
    20     6     7   ar
    21     7     8   ar
    22     8     9    1
    23     9     1    1
    24     8     3   ar
    25    16    10   ar
    26    17    18    1
