@<TRIPOS>MOLECULE
*****
 34 38 0 0 0
SMALL
GASTEIGER

@<TRIPOS>ATOM
      1 N          63.1518   90.6819   13.4683 N.pl3   1  UNL1       -0.2806
      2 H          62.4843   91.1990   13.9746 H       1  UNL1        0.1551
      3 N          62.4917   87.1601   11.9761 N.ar    1  UNL1       -0.2558
      4 N          61.6780   88.0218   11.0565 N.ar    1  UNL1       -0.1727
      5 C          61.8262   89.4459   11.5035 C.ar    1  UNL1        0.0935
      6 C          61.1823   90.6415   10.8666 C.3     1  UNL1        0.0553
      7 C          62.7316   89.4644   12.6995 C.ar    1  UNL1        0.0792
      8 C          63.1428   88.0517   12.9915 C.ar    1  UNL1        0.0704
      9 C          64.0464   87.6085   14.1036 C.3     1  UNL1        0.0531
     10 C          63.0242   80.3699   12.9030 C.3     1  UNL1        0.0948
     11 C          63.0446   81.1945   11.6502 C.2     1  UNL1        0.2261
     12 O          63.2033   80.5278   10.3159 O.2     1  UNL1       -0.2749
     13 N          62.9064   82.6860   11.7316 N.am    1  UNL1       -0.2794
     14 C          62.7477   83.3526   13.0660 C.3     1  UNL1        0.0954
     15 C          62.6095   84.8441   13.1474 C.3     1  UNL1        0.0459
     16 C          62.6299   85.6687   11.8946 C.3     1  UNL1        0.1083
     17 C          62.7885   85.0020   10.5604 C.3     1  UNL1        0.0459
     18 C          62.9268   83.5106   10.4788 C.3     1  UNL1        0.0954
     19 C          64.5889   91.1116   13.4657 C.ar    1  UNL1        0.2208
     20 N          65.4325   90.9154   14.6903 N.ar    1  UNL1       -0.2111
     21 C          66.8697   91.3451   14.6878 C.ar    1  UNL1        0.1147
     22 C          67.4632   91.9710   13.4605 C.ar    1  UNL1        0.0946
     23 CL         68.9003   92.4007   13.4579 Cl      1  UNL1       -0.0790
     24 C          66.6195   92.1671   12.2358 C.ar    1  UNL1        0.0992
     25 N          65.1824   91.7374   12.2385 N.ar    1  UNL1       -0.2126
     26 C          67.2130   92.7930   11.0086 C.ar    1  UNL1        0.0572
     27 C          68.1303   92.1197   10.0312 C.ar    1  UNL1        0.1235
     28 N          68.4776   93.1126    8.9619 N.ar    1  UNL1       -0.1634
     29 N          67.7748   94.3995    9.2783 N.ar    1  UNL1       -0.2281
     30 C          67.7457   95.7256    8.5780 C.ar    1  UNL1        0.1004
     31 C          66.9349   96.8542    9.1427 C.ar    1  UNL1        0.0207
     32 C          66.1533   96.6566   10.4076 C.ar    1  UNL1        0.0031
     33 C          66.1825   95.3305   11.1079 C.ar    1  UNL1        0.0193
     34 C          66.9932   94.2019   10.5432 C.ar    1  UNL1        0.0858
@<TRIPOS>BOND
     1    10    11    1
     2    11    12    2
     3    11    13   am
     4    13    14    1
     5    14    15    1
     6    15    16    1
     7    16     3    1
     8     3     4   ar
     9     4     5   ar
    10     5     6    1
    11     5     7   ar
    12     7     1    1
    13     1    19    1
    14    19    20   ar
    15    20    21   ar
    16    21    22   ar
    17    22    23    1
    18    22    24   ar
    19    24    26    1
    20    26    27   ar
    21    27    28   ar
    22    28    29   ar
    23    29    30   ar
    24    30    31   ar
    25    31    32   ar
    26    32    33   ar
    27    33    34   ar
    28    24    25   ar
    29     7     8   ar
    30     8     9    1
    31    16    17    1
    32    17    18    1
    33    18    13    1
    34     8     3   ar
    35    25    19   ar
    36    34    26   ar
    37    34    29   ar
    38     1     2    1
@<TRIPOS>MOLECULE
*****
 34 38 0 0 0
SMALL
GASTEIGER

@<TRIPOS>ATOM
      1 N          60.1785   89.9630    9.7527 N.pl3   1  UNL1       -0.2806
      2 H          59.6414   90.7017    9.3852 H       1  UNL1        0.1551
      3 N          62.6304   90.6708   12.6771 N.ar    1  UNL1       -0.2558
      4 N          61.4339   90.1550   13.4204 N.ar    1  UNL1       -0.1727
      5 C          60.3698   89.8270   12.4154 C.ar    1  UNL1        0.0935
      6 C          59.0063   89.2817   12.7210 C.3     1  UNL1        0.0553
      7 C          60.9086   90.1402   11.0509 C.ar    1  UNL1        0.0792
      8 C          62.3058   90.6617   11.2127 C.ar    1  UNL1        0.0704
      9 C          63.2180   91.0975   10.1047 C.3     1  UNL1        0.0531
     10 C          68.0154   92.3364   16.6113 C.3     1  UNL1        0.0948
     11 C          67.8062   92.4571   15.1309 C.2     1  UNL1        0.2261
     12 O          68.8908   93.0245   14.2639 O.2     1  UNL1       -0.2749
     13 N          66.5122   92.0106   14.5174 N.am    1  UNL1       -0.2794
     14 C          65.4276   91.4432   15.3844 C.3     1  UNL1        0.0954
     15 C          64.1336   90.9966   14.7709 C.3     1  UNL1        0.0459
     16 C          63.9243   91.1174   13.2905 C.3     1  UNL1        0.1083
     17 C          65.0090   91.6847   12.4236 C.3     1  UNL1        0.0459
     18 C          66.3029   92.1313   13.0370 C.3     1  UNL1        0.0954
     19 C          60.2665   88.6602    9.0144 C.ar    1  UNL1        0.2208
     20 N          59.3562   88.3937    7.8524 N.ar    1  UNL1       -0.2111
     21 C          59.4442   87.0910    7.1141 C.ar    1  UNL1        0.1147
     22 C          60.4426   86.0548    7.5378 C.ar    1  UNL1        0.0946
     23 CL         60.5306   84.7520    6.7995 Cl      1  UNL1       -0.0790
     24 C          61.3529   86.3213    8.6999 C.ar    1  UNL1        0.0992
     25 N          61.2649   87.6240    9.4381 N.ar    1  UNL1       -0.2126
     26 C          62.3513   85.2851    9.1236 C.ar    1  UNL1        0.0572
     27 C          63.2145   84.4668    8.2097 C.ar    1  UNL1        0.1235
     28 N          64.0584   83.5612    9.0569 N.ar    1  UNL1       -0.1634
     29 N          63.7167   83.8198   10.4944 N.ar    1  UNL1       -0.2281
     30 C          64.2300   83.2228   11.7711 C.ar    1  UNL1        0.1004
     31 C          63.6882   83.6912   13.0891 C.ar    1  UNL1        0.0207
     32 C          62.6331   84.7566   13.1303 C.ar    1  UNL1        0.0031
     33 C          62.1199   85.3536   11.8535 C.ar    1  UNL1        0.0193
     34 C          62.6617   84.8852   10.5356 C.ar    1  UNL1        0.0858
@<TRIPOS>BOND
     1    10    11    1
     2    11    12    2
     3    11    13   am
     4    13    14    1
     5    14    15    1
     6    15    16    1
     7    16     3    1
     8     3     4   ar
     9     4     5   ar
    10     5     6    1
    11     5     7   ar
    12     7     1    1
    13     1    19    1
    14    19    20   ar
    15    20    21   ar
    16    21    22   ar
    17    22    23    1
    18    22    24   ar
    19    24    26    1
    20    26    27   ar
    21    27    28   ar
    22    28    29   ar
    23    29    30   ar
    24    30    31   ar
    25    31    32   ar
    26    32    33   ar
    27    33    34   ar
    28    24    25   ar
    29     7     8   ar
    30     8     9    1
    31    16    17    1
    32    17    18    1
    33    18    13    1
    34     8     3   ar
    35    25    19   ar
    36    34    26   ar
    37    34    29   ar
    38     1     2    1
@<TRIPOS>MOLECULE
*****
 34 38 0 0 0
SMALL
GASTEIGER

@<TRIPOS>ATOM
      1 N          63.5158   90.6717   15.1309 N.pl3   1  UNL1       -0.2806
      2 H          62.7760   90.8558   15.7539 H       1  UNL1        0.1551
      3 N          63.4376   87.1684   13.4617 N.ar    1  UNL1       -0.2558
      4 N          63.3209   88.0632   12.2633 N.ar    1  UNL1       -0.1727
      5 C          63.3360   89.4844   12.7428 C.ar    1  UNL1        0.0935
      6 C          63.2417   90.7073   11.8793 C.3     1  UNL1        0.0553
      7 C          63.4620   89.4680   14.2375 C.ar    1  UNL1        0.0792
      8 C          63.5248   88.0366   14.6817 C.ar    1  UNL1        0.0704
      9 C          63.6523   87.5577   16.0974 C.3     1  UNL1        0.0531
     10 C          62.7769   80.4198   12.3346 C.3     1  UNL1        0.0948
     11 C          63.5378   81.1697   13.3876 C.2     1  UNL1        0.2261
     12 O          64.3237   80.4199   14.4221 O.2     1  UNL1       -0.2749
     13 N          63.5127   82.6694   13.4062 N.am    1  UNL1       -0.2794
     14 C          62.7268   83.4192   12.3717 C.3     1  UNL1        0.0954
     15 C          62.7017   84.9189   12.3902 C.3     1  UNL1        0.0459
     16 C          63.4626   85.6687   13.4432 C.3     1  UNL1        0.1083
     17 C          64.2485   84.9190   14.4776 C.3     1  UNL1        0.0459
     18 C          64.2736   83.4193   14.4591 C.3     1  UNL1        0.0954
     19 C          64.6967   91.5950   15.0752 C.ar    1  UNL1        0.2208
     20 N          65.5667   91.7735   16.2840 N.ar    1  UNL1       -0.2111
     21 C          66.7476   92.6968   16.2283 C.ar    1  UNL1        0.1147
     22 C          67.0584   93.4415   14.9639 C.ar    1  UNL1        0.0946
     23 CL         68.2393   94.3648   14.9082 Cl      1  UNL1       -0.0790
     24 C          66.1883   93.2629   13.7550 C.ar    1  UNL1        0.0992
     25 N          65.0075   92.3397   13.8108 N.ar    1  UNL1       -0.2126
     26 C          66.4991   94.0077   12.4906 C.ar    1  UNL1        0.0572
     27 C          66.2032   95.4538   12.2236 C.ar    1  UNL1        0.1235
     28 N          66.6816   95.7768   10.8392 N.ar    1  UNL1       -0.1634
     29 N          67.2732   94.5304   10.2505 N.ar    1  UNL1       -0.2281
     30 C          67.8999   94.2498    8.9170 C.ar    1  UNL1        0.1004
     31 C          68.4139   92.8758    8.6041 C.ar    1  UNL1        0.0207
     32 C          68.3011   91.7824    9.6247 C.ar    1  UNL1        0.0031
     33 C          67.6743   92.0630   10.9583 C.ar    1  UNL1        0.0193
     34 C          67.1603   93.4370   11.2711 C.ar    1  UNL1        0.0858
@<TRIPOS>BOND
     1    10    11    1
     2    11    12    2
     3    11    13   am
     4    13    14    1
     5    14    15    1
     6    15    16    1
     7    16     3    1
     8     3     4   ar
     9     4     5   ar
    10     5     6    1
    11     5     7   ar
    12     7     1    1
    13     1    19    1
    14    19    20   ar
    15    20    21   ar
    16    21    22   ar
    17    22    23    1
    18    22    24   ar
    19    24    26    1
    20    26    27   ar
    21    27    28   ar
    22    28    29   ar
    23    29    30   ar
    24    30    31   ar
    25    31    32   ar
    26    32    33   ar
    27    33    34   ar
    28    24    25   ar
    29     7     8   ar
    30     8     9    1
    31    16    17    1
    32    17    18    1
    33    18    13    1
    34     8     3   ar
    35    25    19   ar
    36    34    26   ar
    37    34    29   ar
    38     1     2    1
@<TRIPOS>MOLECULE
*****
 34 38 0 0 0
SMALL
GASTEIGER

@<TRIPOS>ATOM
      1 N          62.9602   89.5765   12.4742 N.pl3   1  UNL1       -0.2806
      2 H          62.1374   89.7917   11.9784 H       1  UNL1        0.1551
      3 N          63.3724   85.7358   12.8544 N.ar    1  UNL1       -0.2558
      4 N          63.9963   86.2219   14.1291 N.ar    1  UNL1       -0.1727
      5 C          63.9178   87.7198   14.1418 C.ar    1  UNL1        0.0935
      6 C          64.4229   88.6200   15.2302 C.3     1  UNL1        0.0553
      7 C          63.2454   88.1595   12.8750 C.ar    1  UNL1        0.0792
      8 C          62.9084   86.9332   12.0794 C.ar    1  UNL1        0.0704
      9 C          62.2271   86.9089   10.7434 C.3     1  UNL1        0.0531
     10 C          63.1095   79.6168    9.7338 C.3     1  UNL1        0.0948
     11 C          62.8288   80.0073   11.1546 C.2     1  UNL1        0.2261
     12 O          62.4123   78.9658   12.1505 O.2     1  UNL1       -0.2749
     13 N          62.9647   81.4395   11.5796 N.am    1  UNL1       -0.2794
     14 C          63.3813   82.4810   10.5837 C.3     1  UNL1        0.0954
     15 C          63.5172   83.9131   11.0087 C.3     1  UNL1        0.0459
     16 C          63.2365   84.3037   12.4295 C.3     1  UNL1        0.1083
     17 C          62.8200   83.2622   13.4253 C.3     1  UNL1        0.0459
     18 C          62.6841   81.8301   13.0004 C.3     1  UNL1        0.0954
     19 C          63.9286   90.6657   12.8290 C.ar    1  UNL1        0.2208
     20 N          64.0069   91.1694   14.2397 N.ar    1  UNL1       -0.2111
     21 C          64.9753   92.2586   14.5945 C.ar    1  UNL1        0.1147
     22 C          65.8654   92.8441   13.5385 C.ar    1  UNL1        0.0946
     23 CL         66.8338   93.9332   13.8933 Cl      1  UNL1       -0.0790
     24 C          65.7871   92.3403   12.1277 C.ar    1  UNL1        0.0992
     25 N          64.8187   91.2511   11.7731 N.ar    1  UNL1       -0.2126
     26 C          66.6772   92.9257   11.0718 C.ar    1  UNL1        0.0572
     27 C          67.8537   92.2473   10.4349 C.ar    1  UNL1        0.1235
     28 N          68.4506   93.1947    9.4369 N.ar    1  UNL1       -0.1634
     29 N          67.6431   94.4586    9.4570 N.ar    1  UNL1       -0.2281
     30 C          67.7643   95.7394    8.6857 C.ar    1  UNL1        0.1004
     31 C          66.7894   96.8540    8.9250 C.ar    1  UNL1        0.0207
     32 C          65.6933   96.6878    9.9354 C.ar    1  UNL1        0.0031
     33 C          65.5722   95.4070   10.7067 C.ar    1  UNL1        0.0193
     34 C          66.5471   94.2924   10.4674 C.ar    1  UNL1        0.0858
@<TRIPOS>BOND
     1    10    11    1
     2    11    12    2
     3    11    13   am
     4    13    14    1
     5    14    15    1
     6    15    16    1
     7    16     3    1
     8     3     4   ar
     9     4     5   ar
    10     5     6    1
    11     5     7   ar
    12     7     1    1
    13     1    19    1
    14    19    20   ar
    15    20    21   ar
    16    21    22   ar
    17    22    23    1
    18    22    24   ar
    19    24    26    1
    20    26    27   ar
    21    27    28   ar
    22    28    29   ar
    23    29    30   ar
    24    30    31   ar
    25    31    32   ar
    26    32    33   ar
    27    33    34   ar
    28    24    25   ar
    29     7     8   ar
    30     8     9    1
    31    16    17    1
    32    17    18    1
    33    18    13    1
    34     8     3   ar
    35    25    19   ar
    36    34    26   ar
    37    34    29   ar
    38     1     2    1
@<TRIPOS>MOLECULE
*****
 34 38 0 0 0
SMALL
GASTEIGER

@<TRIPOS>ATOM
      1 N          63.7831   88.7482   16.0172 N.pl3   1  UNL1       -0.2806
      2 H          63.9917   89.1771   16.8785 H       1  UNL1        0.1551
      3 N          63.0554   85.0282   15.1817 N.ar    1  UNL1       -0.2558
      4 N          62.6559   85.0844   16.6266 N.ar    1  UNL1       -0.1727
      5 C          62.8799   86.4847   17.1154 C.ar    1  UNL1        0.0935
      6 C          62.6130   86.9874   18.5031 C.3     1  UNL1        0.0553
      7 C          63.4178   87.2940   15.9726 C.ar    1  UNL1        0.0792
      8 C          63.5262   86.3938   14.7776 C.ar    1  UNL1        0.0704
      9 C          64.0189   86.7898   13.4174 C.3     1  UNL1        0.0531
     10 C          63.1220   80.3153   10.1784 C.3     1  UNL1        0.0948
     11 C          62.8122   80.1906   11.6407 C.2     1  UNL1        0.2261
     12 O          62.4417   78.8566   12.2179 O.2     1  UNL1       -0.2749
     13 N          62.8730   81.4001   12.5260 N.am    1  UNL1       -0.2794
     14 C          63.2435   82.7341   11.9488 C.3     1  UNL1        0.0954
     15 C          63.3043   83.9435   12.8341 C.3     1  UNL1        0.0459
     16 C          62.9946   83.8188   14.2965 C.3     1  UNL1        0.1083
     17 C          62.6241   82.4849   14.8736 C.3     1  UNL1        0.0459
     18 C          62.5633   81.2754   13.9884 C.3     1  UNL1        0.0954
     19 C          63.8305   89.5488   14.7497 C.ar    1  UNL1        0.2208
     20 N          64.9464   90.5247   14.5203 N.ar    1  UNL1       -0.2111
     21 C          64.9938   91.3253   13.2528 C.ar    1  UNL1        0.1147
     22 C          63.9254   91.1501   12.2146 C.ar    1  UNL1        0.0946
     23 CL         63.9729   91.9508   10.9470 Cl      1  UNL1       -0.0790
     24 C          62.8095   90.1742   12.4440 C.ar    1  UNL1        0.0992
     25 N          62.7622   89.3736   13.7115 N.ar    1  UNL1       -0.2126
     26 C          61.7411   89.9990   11.4058 C.ar    1  UNL1        0.0572
     27 C          60.6388   90.9700   11.1024 C.ar    1  UNL1        0.1235
     28 N          59.8040   90.3931    9.9978 N.ar    1  UNL1       -0.1634
     29 N          60.3903   89.0656    9.6185 N.ar    1  UNL1       -0.2281
     30 C          59.9887   88.0471    8.5931 C.ar    1  UNL1        0.1004
     31 C          60.7843   86.7851    8.4379 C.ar    1  UNL1        0.0207
     32 C          61.9816   86.5415    9.3081 C.ar    1  UNL1        0.0031
     33 C          62.3832   87.5600   10.3335 C.ar    1  UNL1        0.0193
     34 C          61.5876   88.8220   10.4886 C.ar    1  UNL1        0.0858
@<TRIPOS>BOND
     1    10    11    1
     2    11    12    2
     3    11    13   am
     4    13    14    1
     5    14    15    1
     6    15    16    1
     7    16     3    1
     8     3     4   ar
     9     4     5   ar
    10     5     6    1
    11     5     7   ar
    12     7     1    1
    13     1    19    1
    14    19    20   ar
    15    20    21   ar
    16    21    22   ar
    17    22    23    1
    18    22    24   ar
    19    24    26    1
    20    26    27   ar
    21    27    28   ar
    22    28    29   ar
    23    29    30   ar
    24    30    31   ar
    25    31    32   ar
    26    32    33   ar
    27    33    34   ar
    28    24    25   ar
    29     7     8   ar
    30     8     9    1
    31    16    17    1
    32    17    18    1
    33    18    13    1
    34     8     3   ar
    35    25    19   ar
    36    34    26   ar
    37    34    29   ar
    38     1     2    1
@<TRIPOS>MOLECULE
*****
 34 38 0 0 0
SMALL
GASTEIGER

@<TRIPOS>ATOM
      1 N          62.8213   90.5578   14.0199 N.pl3   1  UNL1       -0.2806
      2 H          61.9565   90.8498   14.3891 H       1  UNL1        0.1551
      3 N          62.6961   87.5494   11.5707 N.ar    1  UNL1       -0.2558
      4 N          63.4504   86.9542   12.7226 N.ar    1  UNL1       -0.1727
      5 C          63.5891   88.0087   13.7803 C.ar    1  UNL1        0.0935
      6 C          64.2758   87.8451   15.1038 C.3     1  UNL1        0.0553
      7 C          62.9205   89.2557   13.2821 C.ar    1  UNL1        0.0792
      8 C          62.3686   88.9717   11.9164 C.ar    1  UNL1        0.0704
      9 C          61.6206   89.9401   11.0490 C.3     1  UNL1        0.0531
     10 C          62.3179   84.1309    5.6191 C.3     1  UNL1        0.0948
     11 C          61.2439   84.7347    6.4747 C.2     1  UNL1        0.2261
     12 O          59.8069   84.6348    6.0563 O.2     1  UNL1       -0.2749
     13 N          61.6069   85.4384    7.7488 N.am    1  UNL1       -0.2794
     14 C          63.0440   85.5382    8.1671 C.3     1  UNL1        0.0954
     15 C          63.4070   86.2419    9.4411 C.3     1  UNL1        0.0459
     16 C          62.3330   86.8457   10.2967 C.3     1  UNL1        0.1083
     17 C          60.8961   86.7458    9.8783 C.3     1  UNL1        0.0459
     18 C          60.5330   86.0422    8.6044 C.3     1  UNL1        0.0954
     19 C          64.0395   91.4153   14.1954 C.ar    1  UNL1        0.2208
     20 N          64.7461   91.4527   15.5179 N.ar    1  UNL1       -0.2111
     21 C          65.9643   92.3101   15.6934 C.ar    1  UNL1        0.1147
     22 C          66.4758   93.1302   14.5463 C.ar    1  UNL1        0.0946
     23 CL         67.6940   93.9876   14.7217 Cl      1  UNL1       -0.0790
     24 C          65.7691   93.0928   13.2236 C.ar    1  UNL1        0.0992
     25 N          64.5510   92.2353   13.0483 N.ar    1  UNL1       -0.2126
     26 C          66.2806   93.9128   12.0765 C.ar    1  UNL1        0.0572
     27 C          66.1046   95.3923   11.9028 C.ar    1  UNL1        0.1235
     28 N          66.7732   95.7911   10.6206 N.ar    1  UNL1       -0.1634
     29 N          67.3623   94.5582   10.0019 N.ar    1  UNL1       -0.2281
     30 C          68.1367   94.3426    8.7355 C.ar    1  UNL1        0.1004
     31 C          68.6066   92.9661    8.3689 C.ar    1  UNL1        0.0207
     32 C          68.3021   91.8052    9.2687 C.ar    1  UNL1        0.0031
     33 C          67.5278   92.0208   10.5351 C.ar    1  UNL1        0.0193
     34 C          67.0579   93.3973   10.9017 C.ar    1  UNL1        0.0858
@<TRIPOS>BOND
     1    10    11    1
     2    11    12    2
     3    11    13   am
     4    13    14    1
     5    14    15    1
     6    15    16    1
     7    16     3    1
     8     3     4   ar
     9     4     5   ar
    10     5     6    1
    11     5     7   ar
    12     7     1    1
    13     1    19    1
    14    19    20   ar
    15    20    21   ar
    16    21    22   ar
    17    22    23    1
    18    22    24   ar
    19    24    26    1
    20    26    27   ar
    21    27    28   ar
    22    28    29   ar
    23    29    30   ar
    24    30    31   ar
    25    31    32   ar
    26    32    33   ar
    27    33    34   ar
    28    24    25   ar
    29     7     8   ar
    30     8     9    1
    31    16    17    1
    32    17    18    1
    33    18    13    1
    34     8     3   ar
    35    25    19   ar
    36    34    26   ar
    37    34    29   ar
    38     1     2    1
@<TRIPOS>MOLECULE
*****
 34 38 0 0 0
SMALL
GASTEIGER

@<TRIPOS>ATOM
      1 N          60.9224   87.1053    9.4324 N.pl3   1  UNL1       -0.2806
      2 H          60.0409   87.0206    9.0021 H       1  UNL1        0.1551
      3 N          62.6516   90.2072   10.9988 N.ar    1  UNL1       -0.2558
      4 N          61.7517   90.8560    9.9890 N.ar    1  UNL1       -0.1727
      5 C          60.9945   89.7729    9.2793 C.ar    1  UNL1        0.0935
      6 C          59.9830   89.9728    8.1899 C.3     1  UNL1        0.0553
      7 C          61.4263   88.4548    9.8505 C.ar    1  UNL1        0.0792
      8 C          62.4504   88.7233   10.9132 C.ar    1  UNL1        0.0704
      9 C          63.1504   87.6893   11.7442 C.3     1  UNL1        0.0531
     10 C          66.4030   92.7095   16.1867 C.3     1  UNL1        0.0948
     11 C          66.3977   93.0492   14.7257 C.2     1  UNL1        0.2261
     12 O          67.3288   94.0993   14.1964 O.2     1  UNL1       -0.2749
     13 N          65.4611   92.3387   13.7939 N.am    1  UNL1       -0.2794
     14 C          64.5300   91.2886   14.3233 C.3     1  UNL1        0.0954
     15 C          63.5934   90.5780   13.3915 C.3     1  UNL1        0.0459
     16 C          63.5881   90.9177   11.9305 C.3     1  UNL1        0.1083
     17 C          64.5192   91.9678   11.4012 C.3     1  UNL1        0.0459
     18 C          65.4558   92.6783   12.3329 C.3     1  UNL1        0.0954
     19 C          61.7614   85.8847    9.6699 C.ar    1  UNL1        0.2208
     20 N          62.5168   85.2613    8.5338 N.ar    1  UNL1       -0.2111
     21 C          63.3558   84.0408    8.7713 C.ar    1  UNL1        0.1147
     22 C          63.4393   83.4437   10.1448 C.ar    1  UNL1        0.0946
     23 CL         64.2783   82.2232   10.3823 Cl      1  UNL1       -0.0790
     24 C          62.6838   84.0672   11.2809 C.ar    1  UNL1        0.0992
     25 N          61.8449   85.2876   11.0434 N.ar    1  UNL1       -0.2126
     26 C          62.7674   83.4701   12.6544 C.ar    1  UNL1        0.0572
     27 C          62.4169   82.0596   13.0254 C.ar    1  UNL1        0.1235
     28 N          62.6490   81.8965   14.4984 N.ar    1  UNL1       -0.1634
     29 N          63.1429   83.2062   15.0377 N.ar    1  UNL1       -0.2281
     30 C          63.5355   83.6388   16.4192 C.ar    1  UNL1        0.1004
     31 C          64.0012   85.0439   16.6611 C.ar    1  UNL1        0.0207
     32 C          64.0744   86.0165   15.5214 C.ar    1  UNL1        0.0031
     33 C          63.6818   85.5839   14.1399 C.ar    1  UNL1        0.0193
     34 C          63.2161   84.1787   13.8980 C.ar    1  UNL1        0.0858
@<TRIPOS>BOND
     1    10    11    1
     2    11    12    2
     3    11    13   am
     4    13    14    1
     5    14    15    1
     6    15    16    1
     7    16     3    1
     8     3     4   ar
     9     4     5   ar
    10     5     6    1
    11     5     7   ar
    12     7     1    1
    13     1    19    1
    14    19    20   ar
    15    20    21   ar
    16    21    22   ar
    17    22    23    1
    18    22    24   ar
    19    24    26    1
    20    26    27   ar
    21    27    28   ar
    22    28    29   ar
    23    29    30   ar
    24    30    31   ar
    25    31    32   ar
    26    32    33   ar
    27    33    34   ar
    28    24    25   ar
    29     7     8   ar
    30     8     9    1
    31    16    17    1
    32    17    18    1
    33    18    13    1
    34     8     3   ar
    35    25    19   ar
    36    34    26   ar
    37    34    29   ar
    38     1     2    1
