@<TRIPOS>MOLECULE
*****
 18 20 0 0 0
SMALL
GASTEIGER

@<TRIPOS>ATOM
      1 C          64.2564   82.2321   12.3901 C.3     1  UNL1        0.0268
      2 C          63.6784   83.2864   11.4931 C.2     1  UNL1       -0.0379
      3 C          64.0438   83.3165   10.0387 C.2     1  UNL1       -0.0065
      4 C          63.4658   84.3707    9.1418 C.2     1  UNL1        0.0198
      5 C          62.5223   85.3949    9.6993 C.2     1  UNL1        0.0973
      6 N          61.7998   86.5454    9.0636 N.2     1  UNL1       -0.2200
      7 C          60.9878   87.2264   10.1251 C.2     1  UNL1        0.1901
      8 N          61.2084   86.4968   11.4170 N.2     1  UNL1       -0.2238
      9 C          62.1569   85.3648   11.1538 C.2     1  UNL1        0.0828
     10 C          62.7349   84.3105   12.0507 C.3     1  UNL1        0.0694
     11 S          60.1093   88.4265    9.9292 S.3     1  UNL1       -0.0692
     12 C          60.1761   89.5708   10.8966 C.3     1  UNL1        0.1107
     13 C          61.5041   90.0411   11.4115 C.ar    1  UNL1        0.0703
     14 C          62.4238   90.8170   10.5159 C.ar    1  UNL1        0.0156
     15 C          63.7518   91.2872   11.0308 C.ar    1  UNL1        0.0028
     16 C          64.1602   90.9816   12.4415 C.ar    1  UNL1        0.0207
     17 C          63.2406   90.2056   13.3371 C.ar    1  UNL1        0.0985
     18 N          61.9125   89.7354   12.8221 N.ar    1  UNL1       -0.2473
@<TRIPOS>BOND
     1     1     2    1
     2     2     3    2
     3     3     4    1
     4     4     5    2
     5     5     6    1
     6     6     7    2
     7     7    11    1
     8    11    12    1
     9    12    13    1
    10    13    14   ar
    11    14    15   ar
    12    15    16   ar
    13    16    17   ar
    14    17    18   ar
    15     7     8    1
    16     8     9    2
    17     9    10    1
    18    10     2    1
    19     9     5    1
    20    18    13   ar
@<TRIPOS>MOLECULE
*****
 18 20 0 0 0
SMALL
GASTEIGER

@<TRIPOS>ATOM
      1 C          60.5032   85.9222    7.8220 C.3     1  UNL1        0.0268
      2 C          60.7779   87.1002    8.7091 C.2     1  UNL1       -0.0379
      3 C          60.1100   88.4155    8.4376 C.2     1  UNL1       -0.0065
      4 C          60.3848   89.5935    9.3246 C.2     1  UNL1        0.0198
      5 C          61.3275   89.4561   10.4833 C.2     1  UNL1        0.0973
      6 N          61.7896   90.4339   11.5226 N.2     1  UNL1       -0.2200
      7 C          62.7431   89.7229   12.4366 C.2     1  UNL1        0.1901
      8 N          62.8703   88.3057   11.9620 N.2     1  UNL1       -0.2238
      9 C          61.9954   88.1408   10.7548 C.2     1  UNL1        0.0828
     10 C          61.7206   86.9628    9.8677 C.3     1  UNL1        0.0694
     11 S          63.4460   90.3237   13.6177 S.3     1  UNL1       -0.0692
     12 C          64.4496   89.5145   14.3846 C.3     1  UNL1        0.1107
     13 C          63.9887   88.4129   15.2923 C.ar    1  UNL1        0.0703
     14 C          63.2618   88.7423   16.5624 C.ar    1  UNL1        0.0156
     15 C          62.8009   87.6406   17.4700 C.ar    1  UNL1        0.0028
     16 C          63.0669   86.2095   17.1076 C.ar    1  UNL1        0.0207
     17 C          63.7938   85.8801   15.8375 C.ar    1  UNL1        0.0985
     18 N          64.2547   86.9819   14.9299 N.ar    1  UNL1       -0.2473
@<TRIPOS>BOND
     1     1     2    1
     2     2     3    2
     3     3     4    1
     4     4     5    2
     5     5     6    1
     6     6     7    2
     7     7    11    1
     8    11    12    1
     9    12    13    1
    10    13    14   ar
    11    14    15   ar
    12    15    16   ar
    13    16    17   ar
    14    17    18   ar
    15     7     8    1
    16     8     9    2
    17     9    10    1
    18    10     2    1
    19     9     5    1
    20    18    13   ar
@<TRIPOS>MOLECULE
*****
 18 20 0 0 0
SMALL
GASTEIGER

@<TRIPOS>ATOM
      1 C          60.1199   87.3175    8.0112 C.3     1  UNL1        0.0268
      2 C          61.0627   86.4741    8.8173 C.2     1  UNL1       -0.0379
      3 C          62.1077   85.6487    8.1270 C.2     1  UNL1       -0.0065
      4 C          63.0506   84.8053    8.9331 C.2     1  UNL1        0.0198
      5 C          62.9485   84.7874   10.4294 C.2     1  UNL1        0.0973
      6 N          63.7330   84.0594   11.4804 N.2     1  UNL1       -0.2200
      7 C          63.1728   84.4349   12.8203 C.2     1  UNL1        0.1901
      8 N          62.0421   85.3950   12.5974 N.2     1  UNL1       -0.2238
      9 C          61.9034   85.6128   11.1197 C.2     1  UNL1        0.0828
     10 C          60.9606   86.4562   10.3137 C.3     1  UNL1        0.0694
     11 S          63.6582   83.9376   14.1497 S.3     1  UNL1       -0.0692
     12 C          64.5630   84.7935   14.9857 C.3     1  UNL1        0.1107
     13 C          64.0736   86.1093   15.5140 C.ar    1  UNL1        0.0703
     14 C          63.3177   86.1634   16.8084 C.ar    1  UNL1        0.0156
     15 C          62.8283   87.4792   17.3367 C.ar    1  UNL1        0.0028
     16 C          63.0949   88.7409   16.5705 C.ar    1  UNL1        0.0207
     17 C          63.8508   88.6868   15.2761 C.ar    1  UNL1        0.0985
     18 N          64.3402   87.3709   14.7478 N.ar    1  UNL1       -0.2473
@<TRIPOS>BOND
     1     1     2    1
     2     2     3    2
     3     3     4    1
     4     4     5    2
     5     5     6    1
     6     6     7    2
     7     7    11    1
     8    11    12    1
     9    12    13    1
    10    13    14   ar
    11    14    15   ar
    12    15    16   ar
    13    16    17   ar
    14    17    18   ar
    15     7     8    1
    16     8     9    2
    17     9    10    1
    18    10     2    1
    19     9     5    1
    20    18    13   ar
@<TRIPOS>MOLECULE
*****
 18 20 0 0 0
SMALL
GASTEIGER

@<TRIPOS>ATOM
      1 C          62.9254   79.4833   10.0877 C.3     1  UNL1        0.0268
      2 C          63.1026   80.7629   10.8500 C.2     1  UNL1       -0.0379
      3 C          63.8042   81.9251   10.2120 C.2     1  UNL1       -0.0065
      4 C          63.9814   83.2047   10.9744 C.2     1  UNL1        0.0198
      5 C          63.4570   83.3222   12.3748 C.2     1  UNL1        0.0973
      6 N          63.4831   84.4484   13.3652 N.2     1  UNL1       -0.2200
      7 C          62.7976   83.9823   14.6153 C.2     1  UNL1        0.1901
      8 N          62.3478   82.5680   14.3976 N.2     1  UNL1       -0.2238
      9 C          62.7553   82.1600   13.0128 C.2     1  UNL1        0.0828
     10 C          62.5781   80.8804   12.2504 C.3     1  UNL1        0.0694
     11 S          62.5971   84.7890   15.8640 S.3     1  UNL1       -0.0692
     12 C          63.6964   85.6761   16.3684 C.3     1  UNL1        0.1107
     13 C          63.7149   87.1303   16.0009 C.ar    1  UNL1        0.0703
     14 C          64.3938   87.5766   14.7400 C.ar    1  UNL1        0.0156
     15 C          64.4122   89.0307   14.3725 C.ar    1  UNL1        0.0028
     16 C          63.7519   90.0386   15.2659 C.ar    1  UNL1        0.0207
     17 C          63.0730   89.5923   16.5268 C.ar    1  UNL1        0.0985
     18 N          63.0546   88.1380   16.8943 N.ar    1  UNL1       -0.2473
@<TRIPOS>BOND
     1     1     2    1
     2     2     3    2
     3     3     4    1
     4     4     5    2
     5     5     6    1
     6     6     7    2
     7     7    11    1
     8    11    12    1
     9    12    13    1
    10    13    14   ar
    11    14    15   ar
    12    15    16   ar
    13    16    17   ar
    14    17    18   ar
    15     7     8    1
    16     8     9    2
    17     9    10    1
    18    10     2    1
    19     9     5    1
    20    18    13   ar
@<TRIPOS>MOLECULE
*****
 18 20 0 0 0
SMALL
GASTEIGER

@<TRIPOS>ATOM
      1 C          66.9787   92.8008   13.6802 C.3     1  UNL1        0.0268
      2 C          65.7823   91.9095   13.5248 C.2     1  UNL1       -0.0379
      3 C          65.4437   90.9152   14.5956 C.2     1  UNL1       -0.0065
      4 C          64.2473   90.0238   14.4402 C.2     1  UNL1        0.0198
      5 C          63.3895   90.1268   13.2140 C.2     1  UNL1        0.0973
      6 N          62.1569   89.3867   12.7863 N.2     1  UNL1       -0.2200
      7 C          61.7338   89.9237   11.4511 C.2     1  UNL1        0.1901
      8 N          62.7048   90.9956   11.0537 N.2     1  UNL1       -0.2238
      9 C          63.7281   91.1212   12.1432 C.2     1  UNL1        0.0828
     10 C          64.9245   92.0125   12.2986 C.3     1  UNL1        0.0694
     11 S          60.5477   89.4685   10.6534 S.3     1  UNL1       -0.0692
     12 C          60.1023   88.0378   10.7218 C.3     1  UNL1        0.1107
     13 C          61.0837   86.9335   10.4627 C.ar    1  UNL1        0.0703
     14 C          61.6346   86.7281    9.0827 C.ar    1  UNL1        0.0156
     15 C          62.6161   85.6238    8.8236 C.ar    1  UNL1        0.0028
     16 C          63.0467   84.7248    9.9446 C.ar    1  UNL1        0.0207
     17 C          62.4959   84.9302   11.3245 C.ar    1  UNL1        0.0985
     18 N          61.5144   86.0346   11.5836 N.ar    1  UNL1       -0.2473
@<TRIPOS>BOND
     1     1     2    1
     2     2     3    2
     3     3     4    1
     4     4     5    2
     5     5     6    1
     6     6     7    2
     7     7    11    1
     8    11    12    1
     9    12    13    1
    10    13    14   ar
    11    14    15   ar
    12    15    16   ar
    13    16    17   ar
    14    17    18   ar
    15     7     8    1
    16     8     9    2
    17     9    10    1
    18    10     2    1
    19     9     5    1
    20    18    13   ar
@<TRIPOS>MOLECULE
*****
 18 20 0 0 0
SMALL
GASTEIGER

@<TRIPOS>ATOM
      1 C          59.2061   88.3028    7.4105 C.3     1  UNL1        0.0268
      2 C          60.1306   88.2555    8.5908 C.2     1  UNL1       -0.0379
      3 C          60.5873   86.9337    9.1333 C.2     1  UNL1       -0.0065
      4 C          61.5118   86.8865   10.3135 C.2     1  UNL1        0.0198
      5 C          61.9797   88.1609   10.9513 C.2     1  UNL1        0.0973
      6 N          62.8853   88.4264   12.1172 N.2     1  UNL1       -0.2200
      7 C          62.9884   89.9122   12.2952 C.2     1  UNL1        0.1901
      8 N          62.1464   90.5651   11.2394 N.2     1  UNL1       -0.2238
      9 C          61.5230   89.4827   10.4088 C.2     1  UNL1        0.0828
     10 C          60.5985   89.5300    9.2285 C.3     1  UNL1        0.0694
     11 S          63.7923   90.6208   13.3449 S.3     1  UNL1       -0.0692
     12 C          64.8744   91.5781   12.9417 C.3     1  UNL1        0.1107
     13 C          65.9362   91.9679   13.9268 C.ar    1  UNL1        0.0703
     14 C          67.3812   91.9307   13.5260 C.ar    1  UNL1        0.0156
     15 C          68.4431   92.3205   14.5111 C.ar    1  UNL1        0.0028
     16 C          68.0600   92.7475   15.8971 C.ar    1  UNL1        0.0207
     17 C          66.6150   92.7847   16.2979 C.ar    1  UNL1        0.0985
     18 N          65.5531   92.3949   15.3127 N.ar    1  UNL1       -0.2473
@<TRIPOS>BOND
     1     1     2    1
     2     2     3    2
     3     3     4    1
     4     4     5    2
     5     5     6    1
     6     6     7    2
     7     7    11    1
     8    11    12    1
     9    12    13    1
    10    13    14   ar
    11    14    15   ar
    12    15    16   ar
    13    16    17   ar
    14    17    18   ar
    15     7     8    1
    16     8     9    2
    17     9    10    1
    18    10     2    1
    19     9     5    1
    20    18    13   ar
@<TRIPOS>MOLECULE
*****
 18 20 0 0 0
SMALL
GASTEIGER

@<TRIPOS>ATOM
      1 C          58.9684   86.9749    7.7178 C.3     1  UNL1        0.0268
      2 C          60.0157   87.1466    8.7778 C.2     1  UNL1       -0.0379
      3 C          60.9326   86.0092    9.1175 C.2     1  UNL1       -0.0065
      4 C          61.9799   86.1809   10.1775 C.2     1  UNL1        0.0198
      5 C          62.1102   87.4901   10.8979 C.2     1  UNL1        0.0973
      6 N          63.0402   87.9518   11.9805 N.2     1  UNL1       -0.2200
      7 C          62.6980   89.3746   12.3100 C.2     1  UNL1        0.1901
      8 N          61.5566   89.7923   11.4310 N.2     1  UNL1       -0.2238
      9 C          61.1933   88.6275   10.5583 C.2     1  UNL1        0.0828
     10 C          60.1460   88.4558    9.4983 C.3     1  UNL1        0.0694
     11 S          63.3779   90.2296   13.3380 S.3     1  UNL1       -0.0692
     12 C          64.3959   89.6270   14.2603 C.3     1  UNL1        0.1107
     13 C          64.0195   88.4728   15.1413 C.ar    1  UNL1        0.0703
     14 C          64.4701   87.0852   14.7929 C.ar    1  UNL1        0.0156
     15 C          64.0937   85.9310   15.6739 C.ar    1  UNL1        0.0028
     16 C          63.2667   86.1645   16.9034 C.ar    1  UNL1        0.0207
     17 C          62.8161   87.5521   17.2518 C.ar    1  UNL1        0.0985
     18 N          63.1925   88.7063   16.3707 N.ar    1  UNL1       -0.2473
@<TRIPOS>BOND
     1     1     2    1
     2     2     3    2
     3     3     4    1
     4     4     5    2
     5     5     6    1
     6     6     7    2
     7     7    11    1
     8    11    12    1
     9    12    13    1
    10    13    14   ar
    11    14    15   ar
    12    15    16   ar
    13    16    17   ar
    14    17    18   ar
    15     7     8    1
    16     8     9    2
    17     9    10    1
    18    10     2    1
    19     9     5    1
    20    18    13   ar
@<TRIPOS>MOLECULE
*****
 18 20 0 0 0
SMALL
GASTEIGER

@<TRIPOS>ATOM
      1 C          62.7804   81.9435   11.6268 C.3     1  UNL1        0.0268
      2 C          63.2169   83.0110   12.5859 C.2     1  UNL1       -0.0379
      3 C          63.7948   82.6323   13.9173 C.2     1  UNL1       -0.0065
      4 C          64.2313   83.6998   14.8764 C.2     1  UNL1        0.0198
      5 C          64.0899   85.1460   14.5042 C.2     1  UNL1        0.0973
      6 N          64.4304   86.4092   15.2378 N.2     1  UNL1       -0.2200
      7 C          64.0631   87.5686   14.3598 C.2     1  UNL1        0.1901
      8 N          63.4954   87.0220   13.0836 N.2     1  UNL1       -0.2238
      9 C          63.5120   85.5246   13.1728 C.2     1  UNL1        0.0828
     10 C          63.0755   84.4571   12.2137 C.3     1  UNL1        0.0694
     11 S          64.2334   89.0199   14.6987 S.3     1  UNL1       -0.0692
     12 C          63.3546   90.0493   14.0520 C.3     1  UNL1        0.1107
     13 C          63.8988   90.9198   12.9584 C.ar    1  UNL1        0.0703
     14 C          63.3537   90.8033   11.5658 C.ar    1  UNL1        0.0156
     15 C          63.8979   91.6739   10.4722 C.ar    1  UNL1        0.0028
     16 C          64.9872   92.6609   10.7712 C.ar    1  UNL1        0.0207
     17 C          65.5322   92.7773   12.1638 C.ar    1  UNL1        0.0985
     18 N          64.9880   91.9067   13.2574 N.ar    1  UNL1       -0.2473
@<TRIPOS>BOND
     1     1     2    1
     2     2     3    2
     3     3     4    1
     4     4     5    2
     5     5     6    1
     6     6     7    2
     7     7    11    1
     8    11    12    1
     9    12    13    1
    10    13    14   ar
    11    14    15   ar
    12    15    16   ar
    13    16    17   ar
    14    17    18   ar
    15     7     8    1
    16     8     9    2
    17     9    10    1
    18    10     2    1
    19     9     5    1
    20    18    13   ar
@<TRIPOS>MOLECULE
*****
 18 20 0 0 0
SMALL
GASTEIGER

@<TRIPOS>ATOM
      1 C          65.7612   93.6399   11.1177 C.3     1  UNL1        0.0268
      2 C          64.9784   92.4297   11.5332 C.2     1  UNL1       -0.0379
      3 C          65.0738   91.9219   12.9413 C.2     1  UNL1       -0.0065
      4 C          64.2910   90.7117   13.3568 C.2     1  UNL1        0.0198
      5 C          63.4128   90.0093   12.3641 C.2     1  UNL1        0.0973
      6 N          62.5303   88.8022   12.4823 N.2     1  UNL1       -0.2200
      7 C          61.8895   88.5640   11.1471 C.2     1  UNL1        0.1901
      8 N          62.3760   89.6238   10.2038 N.2     1  UNL1       -0.2238
      9 C          63.3175   90.5171   10.9560 C.2     1  UNL1        0.0828
     10 C          64.1003   91.7273   10.5405 C.3     1  UNL1        0.0694
     11 S          60.9305   87.4597   10.8138 S.3     1  UNL1       -0.0692
     12 C          61.4170   86.2344   10.0982 C.3     1  UNL1        0.1107
     13 C          62.3246   85.2674   10.7988 C.ar    1  UNL1        0.0703
     14 C          63.1739   84.3230   10.0007 C.ar    1  UNL1        0.0156
     15 C          64.0816   83.3560   10.7013 C.ar    1  UNL1        0.0028
     16 C          64.1400   83.3332   12.2001 C.ar    1  UNL1        0.0207
     17 C          63.2907   84.2776   12.9981 C.ar    1  UNL1        0.0985
     18 N          62.3830   85.2447   12.2974 N.ar    1  UNL1       -0.2473
@<TRIPOS>BOND
     1     1     2    1
     2     2     3    2
     3     3     4    1
     4     4     5    2
     5     5     6    1
     6     6     7    2
     7     7    11    1
     8    11    12    1
     9    12    13    1
    10    13    14   ar
    11    14    15   ar
    12    15    16   ar
    13    16    17   ar
    14    17    18   ar
    15     7     8    1
    16     8     9    2
    17     9    10    1
    18    10     2    1
    19     9     5    1
    20    18    13   ar
