@<TRIPOS>MOLECULE
*****
 37 40 0 0 0
SMALL
GASTEIGER

@<TRIPOS>ATOM
      1 C          64.3532   91.6056   15.0747 C.3     1  UNL1        0.0530
      2 C          64.1085   90.2542   14.4712 C.ar    1  UNL1        0.0711
      3 N          64.4481   89.0148   15.2447 N.ar    1  UNL1       -0.2471
      4 C          64.2035   87.6634   14.6412 C.ar    1  UNL1        0.1020
      5 C          64.5430   86.4240   15.4147 C.ar    1  UNL1        0.0518
      6 C          64.2984   85.0727   14.8112 C.ar    1  UNL1        0.1593
      7 F          64.6380   83.8332   15.5847 F       1  UNL1       -0.2025
      8 C          63.7142   84.9610   13.4342 C.ar    1  UNL1        0.1117
      9 N          63.3746   86.2004   12.6606 N.ar    1  UNL1       -0.2402
     10 C          63.6192   87.5517   13.2642 C.ar    1  UNL1        0.1128
     11 C          63.2797   88.7912   12.4906 C.ar    1  UNL1        0.0760
     12 C          63.5243   90.1425   13.0941 C.ar    1  UNL1        0.0857
     13 CL         63.1847   91.3820   12.3206 Cl      1  UNL1       -0.0797
     14 C          63.4695   83.6096   12.8307 C.ar    1  UNL1        0.0582
     15 C          62.6095   82.6122   13.5485 C.ar    1  UNL1        0.1034
     16 N          62.3648   81.2609   12.9450 N.ar    1  UNL1       -0.2268
     17 C          62.9803   80.9071   11.6236 C.ar    1  UNL1        0.1630
     18 N          63.8404   81.9046   10.9058 N.ar    1  UNL1       -0.2268
     19 C          64.0850   83.2558   11.5093 C.ar    1  UNL1        0.1034
     20 C          62.7357   79.5558   11.0201 C.3     1  UNL1        0.1399
     21 C          63.0651   80.1025    9.6627 C.3     1  UNL1        0.0371
     22 C          62.4063   79.0092   12.3776 C.3     1  UNL1        0.0371
     23 O          62.4911   78.2046   10.4166 O.3     1  UNL1       -0.3796
     24 H          62.6392   78.2466    9.4589 H       1  UNL1        0.2108
     25 N          62.6955   88.6795   11.1136 N.pl3   1  UNL1       -0.3286
     26 H          63.2859   88.5407   10.3382 H       1  UNL1        0.1471
     27 C          61.2116   88.7791   10.9181 C.3     1  UNL1        0.0942
     28 C          60.3511   89.3696   11.9955 C.3     1  UNL1        0.0262
     29 C          60.5883   88.2884    9.6451 C.ar    1  UNL1        0.0236
     30 C          60.1014   89.2705    8.6211 C.ar    1  UNL1        0.0098
     31 C          59.4780   88.7797    7.3481 C.ar    1  UNL1        0.0683
     32 C          59.3415   87.3068    7.0991 C.ar    1  UNL1        0.0126
     33 C          59.8284   86.3247    8.1230 C.ar    1  UNL1        0.0301
     34 C          60.4518   86.8155    9.3960 C.ar    1  UNL1        0.1377
     35 F          60.9387   85.8334   10.4199 F       1  UNL1       -0.2044
     36 C          58.9911   89.7618    6.3242 C.1     1  UNL1        0.1004
     37 N          58.5042   90.7438    5.3003 N.1     1  UNL1       -0.1908
@<TRIPOS>BOND
     1     1     2    1
     2     2     3   ar
     3     3     4   ar
     4     4     5   ar
     5     5     6   ar
     6     6     7    1
     7     6     8   ar
     8     8    14    1
     9    14    15   ar
    10    15    16   ar
    11    16    17   ar
    12    17    20    1
    13    20    21    1
    14    20    22    1
    15    20    23    1
    16    17    18   ar
    17    18    19   ar
    18     8     9   ar
    19     9    10   ar
    20    10    11   ar
    21    11    25    1
    22    25    27    1
    23    27    28    1
    24    27    29    1
    25    29    30   ar
    26    30    31   ar
    27    31    36    1
    28    36    37    3
    29    31    32   ar
    30    32    33   ar
    31    33    34   ar
    32    34    35    1
    33    11    12   ar
    34    12    13    1
    35    12     2   ar
    36    10     4   ar
    37    34    29   ar
    38    19    14   ar
    39    23    24    1
    40    25    26    1
@<TRIPOS>MOLECULE
*****
 37 40 0 0 0
SMALL
GASTEIGER

@<TRIPOS>ATOM
      1 C          61.8838   81.3082   14.5632 C.3     1  UNL1        0.0530
      2 C          62.3991   82.6869   14.2737 C.ar    1  UNL1        0.0711
      3 N          62.4292   83.7200   15.3608 N.ar    1  UNL1       -0.2471
      4 C          62.9446   85.0986   15.0713 C.ar    1  UNL1        0.1020
      5 C          62.9747   86.1317   16.1584 C.ar    1  UNL1        0.0518
      6 C          63.4900   87.5103   15.8688 C.ar    1  UNL1        0.1593
      7 F          63.5201   88.5435   16.9559 F       1  UNL1       -0.2025
      8 C          63.9753   87.8558   14.4922 C.ar    1  UNL1        0.1117
      9 N          63.9452   86.8227   13.4051 N.ar    1  UNL1       -0.2402
     10 C          63.4299   85.4441   13.6946 C.ar    1  UNL1        0.1128
     11 C          63.3998   84.4110   12.6075 C.ar    1  UNL1        0.0760
     12 C          62.8844   83.0324   12.8971 C.ar    1  UNL1        0.0857
     13 CL         62.8543   81.9992   11.8100 Cl      1  UNL1       -0.0797
     14 C          64.4907   89.2344   14.2026 C.ar    1  UNL1        0.0582
     15 C          65.7017   89.7490   14.9227 C.ar    1  UNL1        0.1034
     16 N          66.2171   91.1276   14.6332 N.ar    1  UNL1       -0.2268
     17 C          65.5214   91.9917   13.6236 C.ar    1  UNL1        0.1630
     18 N          64.3103   91.4771   12.9035 N.ar    1  UNL1       -0.2268
     19 C          63.7950   90.0985   13.1930 C.ar    1  UNL1        0.1034
     20 C          66.0367   93.3703   13.3340 C.3     1  UNL1        0.1399
     21 C          66.5289   93.4829   14.7464 C.3     1  UNL1        0.0371
     22 C          65.5445   93.2577   11.9216 C.3     1  UNL1        0.0371
     23 O          66.5520   94.7489   13.0445 O.3     1  UNL1       -0.3796
     24 H          66.9632   95.1147   13.8432 H       1  UNL1        0.2108
     25 N          63.8851   84.7565   11.2309 N.pl3   1  UNL1       -0.3286
     26 H          64.8036   85.0862   11.1011 H       1  UNL1        0.1471
     27 C          62.9709   84.5996   10.0521 C.3     1  UNL1        0.0942
     28 C          63.0779   83.3866    9.1761 C.3     1  UNL1        0.0262
     29 C          61.9497   85.6557    9.7491 C.ar    1  UNL1        0.0236
     30 C          61.4119   86.5175   10.8528 C.ar    1  UNL1        0.0098
     31 C          60.3907   87.5737   10.5498 C.ar    1  UNL1        0.0683
     32 C          59.9074   87.7680    9.1431 C.ar    1  UNL1        0.0126
     33 C          60.4453   86.9063    8.0395 C.ar    1  UNL1        0.0301
     34 C          61.4665   85.8501    8.3425 C.ar    1  UNL1        0.1377
     35 F          62.0043   84.9884    7.2388 F       1  UNL1       -0.2044
     36 C          59.8528   88.4354   11.6534 C.1     1  UNL1        0.1004
     37 N          59.3150   89.2971   12.7571 N.1     1  UNL1       -0.1908
@<TRIPOS>BOND
     1     1     2    1
     2     2     3   ar
     3     3     4   ar
     4     4     5   ar
     5     5     6   ar
     6     6     7    1
     7     6     8   ar
     8     8    14    1
     9    14    15   ar
    10    15    16   ar
    11    16    17   ar
    12    17    20    1
    13    20    21    1
    14    20    22    1
    15    20    23    1
    16    17    18   ar
    17    18    19   ar
    18     8     9   ar
    19     9    10   ar
    20    10    11   ar
    21    11    25    1
    22    25    27    1
    23    27    28    1
    24    27    29    1
    25    29    30   ar
    26    30    31   ar
    27    31    36    1
    28    36    37    3
    29    31    32   ar
    30    32    33   ar
    31    33    34   ar
    32    34    35    1
    33    11    12   ar
    34    12    13    1
    35    12     2   ar
    36    10     4   ar
    37    34    29   ar
    38    19    14   ar
    39    23    24    1
    40    25    26    1
@<TRIPOS>MOLECULE
*****
 37 40 0 0 0
SMALL
GASTEIGER

@<TRIPOS>ATOM
      1 C          62.3630   85.9883   18.2663 C.3     1  UNL1        0.0530
      2 C          62.9184   86.8238   17.1511 C.ar    1  UNL1        0.0711
      3 N          63.1193   88.2974   17.3463 N.ar    1  UNL1       -0.2471
      4 C          63.6747   89.1329   16.2311 C.ar    1  UNL1        0.1020
      5 C          63.8756   90.6064   16.4263 C.ar    1  UNL1        0.0518
      6 C          64.4310   91.4418   15.3111 C.ar    1  UNL1        0.1593
      7 F          64.6319   92.9155   15.5063 F       1  UNL1       -0.2025
      8 C          64.7853   90.8036   14.0007 C.ar    1  UNL1        0.1117
      9 N          64.5844   89.3301   13.8055 N.ar    1  UNL1       -0.2402
     10 C          64.0290   88.4947   14.9207 C.ar    1  UNL1        0.1128
     11 C          63.8281   87.0210   14.7255 C.ar    1  UNL1        0.0760
     12 C          63.2727   86.1856   15.8407 C.ar    1  UNL1        0.0857
     13 CL         63.0717   84.7120   15.6455 Cl      1  UNL1       -0.0797
     14 C          65.3407   91.6391   12.8855 C.ar    1  UNL1        0.0582
     15 C          66.6896   92.2794   13.0281 C.ar    1  UNL1        0.1034
     16 N          67.2450   93.1149   11.9129 N.ar    1  UNL1       -0.2268
     17 C          66.4513   93.3100   10.6551 C.ar    1  UNL1        0.1630
     18 N          65.1023   92.6697   10.5126 N.ar    1  UNL1       -0.2268
     19 C          64.5470   91.8343   11.6277 C.ar    1  UNL1        0.1034
     20 C          67.0066   94.1455    9.5400 C.3     1  UNL1        0.1399
     21 C          66.0632   95.2543    9.9009 C.3     1  UNL1        0.0371
     22 C          67.9500   93.0366    9.1790 C.3     1  UNL1        0.0371
     23 O          67.5619   94.9809    8.4248 O.3     1  UNL1       -0.3796
     24 H          67.1064   95.8371    8.4044 H       1  UNL1        0.2108
     25 N          64.1824   86.3829   13.4151 N.pl3   1  UNL1       -0.3286
     26 H          65.1040   86.4393   13.0734 H       1  UNL1        0.1471
     27 C          63.1327   85.6588   12.6254 C.3     1  UNL1        0.0942
     28 C          62.7817   84.2410   12.9673 C.3     1  UNL1        0.0262
     29 C          62.4340   86.3523   11.4937 C.ar    1  UNL1        0.0236
     30 C          61.6952   87.6342   11.7413 C.ar    1  UNL1        0.0098
     31 C          60.9965   88.3277   10.6096 C.ar    1  UNL1        0.0683
     32 C          61.0365   87.7395    9.2303 C.ar    1  UNL1        0.0126
     33 C          61.7753   86.4578    8.9827 C.ar    1  UNL1        0.0301
     34 C          62.4740   85.7642   10.1144 C.ar    1  UNL1        0.1377
     35 F          63.2128   84.4824    9.8668 F       1  UNL1       -0.2044
     36 C          60.2577   89.6095   10.8572 C.1     1  UNL1        0.1004
     37 N          59.5190   90.8912   11.1047 N.1     1  UNL1       -0.1908
@<TRIPOS>BOND
     1     1     2    1
     2     2     3   ar
     3     3     4   ar
     4     4     5   ar
     5     5     6   ar
     6     6     7    1
     7     6     8   ar
     8     8    14    1
     9    14    15   ar
    10    15    16   ar
    11    16    17   ar
    12    17    20    1
    13    20    21    1
    14    20    22    1
    15    20    23    1
    16    17    18   ar
    17    18    19   ar
    18     8     9   ar
    19     9    10   ar
    20    10    11   ar
    21    11    25    1
    22    25    27    1
    23    27    28    1
    24    27    29    1
    25    29    30   ar
    26    30    31   ar
    27    31    36    1
    28    36    37    3
    29    31    32   ar
    30    32    33   ar
    31    33    34   ar
    32    34    35    1
    33    11    12   ar
    34    12    13    1
    35    12     2   ar
    36    10     4   ar
    37    34    29   ar
    38    19    14   ar
    39    23    24    1
    40    25    26    1
@<TRIPOS>MOLECULE
*****
 37 40 0 0 0
SMALL
GASTEIGER

@<TRIPOS>ATOM
      1 C          64.0655   92.4737   16.8123 C.3     1  UNL1        0.0530
      2 C          63.9523   91.1410   16.1333 C.ar    1  UNL1        0.0711
      3 N          63.5828   89.9235   16.9277 N.ar    1  UNL1       -0.2471
      4 C          63.4696   88.5907   16.2486 C.ar    1  UNL1        0.1020
      5 C          63.1000   87.3732   17.0430 C.ar    1  UNL1        0.0518
      6 C          62.9869   86.0405   16.3640 C.ar    1  UNL1        0.1593
      7 F          62.6173   84.8229   17.1584 F       1  UNL1       -0.2025
      8 C          63.2432   85.9254   14.8905 C.ar    1  UNL1        0.1117
      9 N          63.6127   87.1429   14.0962 N.ar    1  UNL1       -0.2402
     10 C          63.7259   88.4755   14.7752 C.ar    1  UNL1        0.1128
     11 C          64.0954   89.6931   13.9808 C.ar    1  UNL1        0.0760
     12 C          64.2086   91.0258   14.6599 C.ar    1  UNL1        0.0857
     13 CL         64.5781   92.2434   13.8655 Cl      1  UNL1       -0.0797
     14 C          63.1300   84.5926   14.2115 C.ar    1  UNL1        0.0582
     15 C          62.7403   84.5186   12.7649 C.ar    1  UNL1        0.1034
     16 N          62.6271   83.1859   12.0859 N.ar    1  UNL1       -0.2268
     17 C          62.9036   81.9272   12.8535 C.ar    1  UNL1        0.1630
     18 N          63.2934   82.0012   14.3001 N.ar    1  UNL1       -0.2268
     19 C          63.4066   83.3339   14.9791 C.ar    1  UNL1        0.1034
     20 C          62.7904   80.5945   12.1745 C.3     1  UNL1        0.1399
     21 C          63.2154   81.2187   10.8785 C.3     1  UNL1        0.0371
     22 C          62.3655   79.9703   13.4706 C.3     1  UNL1        0.0371
     23 O          62.6773   79.2618   11.4956 O.3     1  UNL1       -0.3796
     24 H          62.9120   79.3551   10.5590 H       1  UNL1        0.2108
     25 N          64.3517   89.5780   12.5074 N.pl3   1  UNL1       -0.3286
     26 H          65.2161   89.2356   12.1834 H       1  UNL1        0.1471
     27 C          63.2912   89.9845   11.5276 C.3     1  UNL1        0.0942
     28 C          63.1933   91.4121   11.0776 C.3     1  UNL1        0.0262
     29 C          62.3285   88.9634   10.9978 C.ar    1  UNL1        0.0236
     30 C          62.8014   87.9162   10.0334 C.ar    1  UNL1        0.0098
     31 C          61.8387   86.8952    9.5036 C.ar    1  UNL1        0.0683
     32 C          60.4032   86.9213    9.9381 C.ar    1  UNL1        0.0126
     33 C          59.9304   87.9684   10.9024 C.ar    1  UNL1        0.0301
     34 C          60.8931   88.9895   11.4323 C.ar    1  UNL1        0.1377
     35 F          60.4203   90.0367   12.3966 F       1  UNL1       -0.2044
     36 C          62.3115   85.8480    8.5393 C.1     1  UNL1        0.1004
     37 N          62.7842   84.8008    7.5750 N.1     1  UNL1       -0.1908
@<TRIPOS>BOND
     1     1     2    1
     2     2     3   ar
     3     3     4   ar
     4     4     5   ar
     5     5     6   ar
     6     6     7    1
     7     6     8   ar
     8     8    14    1
     9    14    15   ar
    10    15    16   ar
    11    16    17   ar
    12    17    20    1
    13    20    21    1
    14    20    22    1
    15    20    23    1
    16    17    18   ar
    17    18    19   ar
    18     8     9   ar
    19     9    10   ar
    20    10    11   ar
    21    11    25    1
    22    25    27    1
    23    27    28    1
    24    27    29    1
    25    29    30   ar
    26    30    31   ar
    27    31    36    1
    28    36    37    3
    29    31    32   ar
    30    32    33   ar
    31    33    34   ar
    32    34    35    1
    33    11    12   ar
    34    12    13    1
    35    12     2   ar
    36    10     4   ar
    37    34    29   ar
    38    19    14   ar
    39    23    24    1
    40    25    26    1
@<TRIPOS>MOLECULE
*****
 37 40 0 0 0
SMALL
GASTEIGER

@<TRIPOS>ATOM
      1 C          64.3943   91.4541   15.1681 C.3     1  UNL1        0.0530
      2 C          64.1446   90.1097   14.5513 C.ar    1  UNL1        0.0711
      3 N          64.4648   88.8613   15.3186 N.ar    1  UNL1       -0.2471
      4 C          64.2152   87.5169   14.7018 C.ar    1  UNL1        0.1020
      5 C          64.5354   86.2685   15.4692 C.ar    1  UNL1        0.0518
      6 C          64.2857   84.9242   14.8523 C.ar    1  UNL1        0.1593
      7 F          64.6060   83.6757   15.6197 F       1  UNL1       -0.2025
      8 C          63.7159   84.8284   13.4681 C.ar    1  UNL1        0.1117
      9 N          63.3956   86.0768   12.7007 N.ar    1  UNL1       -0.2402
     10 C          63.6453   87.4210   13.3176 C.ar    1  UNL1        0.1128
     11 C          63.3251   88.6695   12.5502 C.ar    1  UNL1        0.0760
     12 C          63.5747   90.0138   13.1670 C.ar    1  UNL1        0.0857
     13 CL         63.2545   91.2623   12.3997 Cl      1  UNL1       -0.0797
     14 C          63.4662   83.4840   12.8513 C.ar    1  UNL1        0.0582
     15 C          62.6941   82.4437   13.6073 C.ar    1  UNL1        0.1034
     16 N          62.4445   81.0993   12.9904 N.ar    1  UNL1       -0.2268
     17 C          62.9669   80.7953   11.6176 C.ar    1  UNL1        0.1630
     18 N          63.7391   81.8357   10.8616 N.ar    1  UNL1       -0.2268
     19 C          63.9887   83.1800   11.4784 C.ar    1  UNL1        0.1034
     20 C          62.7173   79.4510   11.0008 C.3     1  UNL1        0.1399
     21 C          62.4309   78.8812   12.3584 C.3     1  UNL1        0.0371
     22 C          63.0037   80.0208    9.6431 C.3     1  UNL1        0.0371
     23 O          62.4677   78.1068   10.3839 O.3     1  UNL1       -0.3796
     24 H          62.2393   77.4696   11.0787 H       1  UNL1        0.2108
     25 N          62.7552   88.5737   11.1660 N.pl3   1  UNL1       -0.3286
     26 H          63.3496   88.6354   10.3836 H       1  UNL1        0.1471
     27 C          61.2798   88.3837   10.9738 C.3     1  UNL1        0.0942
     28 C          60.3540   88.4600   12.1517 C.3     1  UNL1        0.0262
     29 C          60.7299   88.1175    9.6039 C.ar    1  UNL1        0.0236
     30 C          61.0382   86.8236    8.9104 C.ar    1  UNL1        0.0098
     31 C          60.4884   86.5574    7.5404 C.ar    1  UNL1        0.0683
     32 C          59.6303   87.5851    6.8639 C.ar    1  UNL1        0.0126
     33 C          59.3221   88.8789    7.5574 C.ar    1  UNL1        0.0301
     34 C          59.8719   89.1451    8.9274 C.ar    1  UNL1        0.1377
     35 F          59.5636   90.4391    9.6208 F       1  UNL1       -0.2044
     36 C          60.7967   85.2636    6.8469 C.1     1  UNL1        0.1004
     37 N          61.1049   83.9697    6.1535 N.1     1  UNL1       -0.1908
@<TRIPOS>BOND
     1     1     2    1
     2     2     3   ar
     3     3     4   ar
     4     4     5   ar
     5     5     6   ar
     6     6     7    1
     7     6     8   ar
     8     8    14    1
     9    14    15   ar
    10    15    16   ar
    11    16    17   ar
    12    17    20    1
    13    20    21    1
    14    20    22    1
    15    20    23    1
    16    17    18   ar
    17    18    19   ar
    18     8     9   ar
    19     9    10   ar
    20    10    11   ar
    21    11    25    1
    22    25    27    1
    23    27    28    1
    24    27    29    1
    25    29    30   ar
    26    30    31   ar
    27    31    36    1
    28    36    37    3
    29    31    32   ar
    30    32    33   ar
    31    33    34   ar
    32    34    35    1
    33    11    12   ar
    34    12    13    1
    35    12     2   ar
    36    10     4   ar
    37    34    29   ar
    38    19    14   ar
    39    23    24    1
    40    25    26    1
@<TRIPOS>MOLECULE
*****
 37 40 0 0 0
SMALL
GASTEIGER

@<TRIPOS>ATOM
      1 C          62.3204   85.8319   18.2711 C.3     1  UNL1        0.0530
      2 C          62.9049   86.6630   17.1676 C.ar    1  UNL1        0.0711
      3 N          63.0452   88.1464   17.3397 N.ar    1  UNL1       -0.2471
      4 C          63.6298   88.9775   16.2362 C.ar    1  UNL1        0.1020
      5 C          63.7700   90.4610   16.4082 C.ar    1  UNL1        0.0518
      6 C          64.3545   91.2920   15.3048 C.ar    1  UNL1        0.1593
      7 F          64.4948   92.7755   15.4768 F       1  UNL1       -0.2025
      8 C          64.7989   90.6395   14.0293 C.ar    1  UNL1        0.1117
      9 N          64.6587   89.1561   13.8573 N.ar    1  UNL1       -0.2402
     10 C          64.0741   88.3251   14.9607 C.ar    1  UNL1        0.1128
     11 C          63.9338   86.8415   14.7887 C.ar    1  UNL1        0.0760
     12 C          63.3493   86.0105   15.8922 C.ar    1  UNL1        0.0857
     13 CL         63.2090   84.5270   15.7202 Cl      1  UNL1       -0.0797
     14 C          65.3835   91.4706   12.9258 C.ar    1  UNL1        0.0582
     15 C          64.5817   91.7449   11.6881 C.ar    1  UNL1        0.1034
     16 N          65.1663   92.5760   10.5846 N.ar    1  UNL1       -0.2268
     17 C          66.5527   93.1328   10.7189 C.ar    1  UNL1        0.1630
     18 N          67.3544   92.8585   11.9567 N.ar    1  UNL1       -0.2268
     19 C          66.7698   92.0274   13.0601 C.ar    1  UNL1        0.1034
     20 C          67.1373   93.9639    9.6155 C.3     1  UNL1        0.1399
     21 C          66.2607   95.1130   10.0166 C.3     1  UNL1        0.0371
     22 C          68.0138   92.8147    9.2144 C.3     1  UNL1        0.0371
     23 O          67.7219   94.7949    8.5121 O.3     1  UNL1       -0.3796
     24 H          67.3134   95.6747    8.5188 H       1  UNL1        0.2108
     25 N          64.3782   86.1891   13.5132 N.pl3   1  UNL1       -0.3286
     26 H          65.3379   86.1156   13.3062 H       1  UNL1        0.1471
     27 C          63.3604   85.6485   12.5531 C.3     1  UNL1        0.0942
     28 C          62.4703   86.5888   11.7955 C.3     1  UNL1        0.0262
     29 C          63.2325   84.1678   12.3506 C.ar    1  UNL1        0.0236
     30 C          62.2346   83.3847   13.1511 C.ar    1  UNL1        0.0098
     31 C          62.1067   81.9039   12.9486 C.ar    1  UNL1        0.0683
     32 C          62.9768   81.2063   11.9454 C.ar    1  UNL1        0.0126
     33 C          63.9747   81.9894   11.1449 C.ar    1  UNL1        0.0301
     34 C          64.1026   83.4702   11.3475 C.ar    1  UNL1        0.1377
     35 F          65.1006   84.2533   10.5469 F       1  UNL1       -0.2044
     36 C          61.1088   81.1208   13.7491 C.1     1  UNL1        0.1004
     37 N          60.1109   80.3377   14.5496 N.1     1  UNL1       -0.1908
@<TRIPOS>BOND
     1     1     2    1
     2     2     3   ar
     3     3     4   ar
     4     4     5   ar
     5     5     6   ar
     6     6     7    1
     7     6     8   ar
     8     8    14    1
     9    14    15   ar
    10    15    16   ar
    11    16    17   ar
    12    17    20    1
    13    20    21    1
    14    20    22    1
    15    20    23    1
    16    17    18   ar
    17    18    19   ar
    18     8     9   ar
    19     9    10   ar
    20    10    11   ar
    21    11    25    1
    22    25    27    1
    23    27    28    1
    24    27    29    1
    25    29    30   ar
    26    30    31   ar
    27    31    36    1
    28    36    37    3
    29    31    32   ar
    30    32    33   ar
    31    33    34   ar
    32    34    35    1
    33    11    12   ar
    34    12    13    1
    35    12     2   ar
    36    10     4   ar
    37    34    29   ar
    38    19    14   ar
    39    23    24    1
    40    25    26    1
@<TRIPOS>MOLECULE
*****
 37 40 0 0 0
SMALL
GASTEIGER

@<TRIPOS>ATOM
      1 C          62.3586   86.0216   18.2056 C.3     1  UNL1        0.0530
      2 C          62.9120   86.8659   17.0961 C.ar    1  UNL1        0.0711
      3 N          63.1565   88.3292   17.3176 N.ar    1  UNL1       -0.2471
      4 C          63.7098   89.1735   16.2080 C.ar    1  UNL1        0.1020
      5 C          63.9543   90.6368   16.4295 C.ar    1  UNL1        0.0518
      6 C          64.5076   91.4810   15.3200 C.ar    1  UNL1        0.1593
      7 F          64.7521   92.9443   15.5415 F       1  UNL1       -0.2025
      8 C          64.8165   90.8620   13.9891 C.ar    1  UNL1        0.1117
      9 N          64.5720   89.3988   13.7676 N.ar    1  UNL1       -0.2402
     10 C          64.0187   88.5545   14.8771 C.ar    1  UNL1        0.1128
     11 C          63.7742   87.0912   14.6557 C.ar    1  UNL1        0.0760
     12 C          63.2209   86.2469   15.7651 C.ar    1  UNL1        0.0857
     13 CL         62.9764   84.7836   15.5437 Cl      1  UNL1       -0.0797
     14 C          65.3699   91.7064   12.8796 C.ar    1  UNL1        0.0582
     15 C          64.5547   91.9497   11.6442 C.ar    1  UNL1        0.1034
     16 N          65.1080   92.7940   10.5346 N.ar    1  UNL1       -0.2268
     17 C          66.4766   93.3950   10.6606 C.ar    1  UNL1        0.1630
     18 N          67.2918   93.1517   11.8961 N.ar    1  UNL1       -0.2268
     19 C          66.7384   92.3074   13.0055 C.ar    1  UNL1        0.1034
     20 C          67.0300   94.2393    9.5512 C.3     1  UNL1        0.1399
     21 C          66.1033   95.3539    9.9372 C.3     1  UNL1        0.0371
     22 C          67.9566   93.1248    9.1652 C.3     1  UNL1        0.0371
     23 O          67.5834   95.0836    8.4418 O.3     1  UNL1       -0.3796
     24 H          67.1377   95.9451    8.4379 H       1  UNL1        0.2108
     25 N          64.0831   86.4722   13.3247 N.pl3   1  UNL1       -0.3286
     26 H          64.9975   86.5147   12.9624 H       1  UNL1        0.1471
     27 C          62.9988   85.7884   12.5458 C.3     1  UNL1        0.0942
     28 C          62.4584   84.4690   13.0120 C.3     1  UNL1        0.0262
     29 C          62.4549   86.4239   11.3007 C.ar    1  UNL1        0.0236
     30 C          62.2390   85.5958   10.0688 C.ar    1  UNL1        0.0098
     31 C          61.6951   86.2313    8.8237 C.ar    1  UNL1        0.0683
     32 C          61.3670   87.6950    8.8106 C.ar    1  UNL1        0.0126
     33 C          61.5828   88.5231   10.0425 C.ar    1  UNL1        0.0301
     34 C          62.1268   87.8875   11.2876 C.ar    1  UNL1        0.1377
     35 F          62.3426   88.7157   12.5196 F       1  UNL1       -0.2044
     36 C          61.4792   85.4033    7.5918 C.1     1  UNL1        0.1004
     37 N          61.2634   84.5752    6.3598 N.1     1  UNL1       -0.1908
@<TRIPOS>BOND
     1     1     2    1
     2     2     3   ar
     3     3     4   ar
     4     4     5   ar
     5     5     6   ar
     6     6     7    1
     7     6     8   ar
     8     8    14    1
     9    14    15   ar
    10    15    16   ar
    11    16    17   ar
    12    17    20    1
    13    20    21    1
    14    20    22    1
    15    20    23    1
    16    17    18   ar
    17    18    19   ar
    18     8     9   ar
    19     9    10   ar
    20    10    11   ar
    21    11    25    1
    22    25    27    1
    23    27    28    1
    24    27    29    1
    25    29    30   ar
    26    30    31   ar
    27    31    36    1
    28    36    37    3
    29    31    32   ar
    30    32    33   ar
    31    33    34   ar
    32    34    35    1
    33    11    12   ar
    34    12    13    1
    35    12     2   ar
    36    10     4   ar
    37    34    29   ar
    38    19    14   ar
    39    23    24    1
    40    25    26    1
@<TRIPOS>MOLECULE
*****
 37 40 0 0 0
SMALL
GASTEIGER

@<TRIPOS>ATOM
      1 C          59.1444   88.1637    7.7590 C.3     1  UNL1        0.0530
      2 C          60.2116   88.5395    8.7440 C.ar    1  UNL1        0.0711
      3 N          60.8860   89.8757    8.6457 N.ar    1  UNL1       -0.2471
      4 C          61.9532   90.2515    9.6306 C.ar    1  UNL1        0.1020
      5 C          62.6276   91.5876    9.5323 C.ar    1  UNL1        0.0518
      6 C          63.6947   91.9634   10.5172 C.ar    1  UNL1        0.1593
      7 F          64.3692   93.2996   10.4189 F       1  UNL1       -0.2025
      8 C          64.0873   91.0029   11.6004 C.ar    1  UNL1        0.1117
      9 N          63.4129   89.6667   11.6987 N.ar    1  UNL1       -0.2402
     10 C          62.3458   89.2910   10.7138 C.ar    1  UNL1        0.1128
     11 C          61.6713   87.9547   10.8121 C.ar    1  UNL1        0.0760
     12 C          60.6043   87.5790    9.8272 C.ar    1  UNL1        0.0857
     13 CL         59.9298   86.2428    9.9254 Cl      1  UNL1       -0.0797
     14 C          65.1545   91.3787   12.5853 C.ar    1  UNL1        0.0582
     15 C          64.9572   91.1032   14.0465 C.ar    1  UNL1        0.1034
     16 N          66.0243   91.4790   15.0315 N.ar    1  UNL1       -0.2268
     17 C          67.2888   92.1303   14.5551 C.ar    1  UNL1        0.1630
     18 N          67.4861   92.4059   13.0938 N.ar    1  UNL1       -0.2268
     19 C          66.4190   92.0301   12.1090 C.ar    1  UNL1        0.1034
     20 C          68.3559   92.5061   15.5400 C.3     1  UNL1        0.1399
     21 C          69.3941   92.3744   14.4653 C.3     1  UNL1        0.0371
     22 C          67.3178   92.6378   16.6146 C.3     1  UNL1        0.0371
     23 O          69.4231   92.8819   16.5248 O.3     1  UNL1       -0.3796
     24 H          70.2860   92.8826   16.0819 H       1  UNL1        0.2108
     25 N          62.0640   86.9943   11.8953 N.pl3   1  UNL1       -0.3286
     26 H          61.9183   87.2311   12.8397 H       1  UNL1        0.1471
     27 C          62.6788   85.6731   11.5396 C.3     1  UNL1        0.0942
     28 C          62.9116   85.3172   10.1011 C.3     1  UNL1        0.0262
     29 C          63.0608   84.7078   12.6223 C.ar    1  UNL1        0.0236
     30 C          62.6403   83.2710   12.5286 C.ar    1  UNL1        0.0098
     31 C          63.0223   82.3057   13.6114 C.ar    1  UNL1        0.0683
     32 C          63.8248   82.7772   14.7877 C.ar    1  UNL1        0.0126
     33 C          64.2452   84.2140   14.8813 C.ar    1  UNL1        0.0301
     34 C          63.8632   85.1793   13.7986 C.ar    1  UNL1        0.1377
     35 F          64.2837   86.6162   13.8922 F       1  UNL1       -0.2044
     36 C          62.6019   80.8689   13.5178 C.1     1  UNL1        0.1004
     37 N          62.1815   79.4321   13.4242 N.1     1  UNL1       -0.1908
@<TRIPOS>BOND
     1     1     2    1
     2     2     3   ar
     3     3     4   ar
     4     4     5   ar
     5     5     6   ar
     6     6     7    1
     7     6     8   ar
     8     8    14    1
     9    14    15   ar
    10    15    16   ar
    11    16    17   ar
    12    17    20    1
    13    20    21    1
    14    20    22    1
    15    20    23    1
    16    17    18   ar
    17    18    19   ar
    18     8     9   ar
    19     9    10   ar
    20    10    11   ar
    21    11    25    1
    22    25    27    1
    23    27    28    1
    24    27    29    1
    25    29    30   ar
    26    30    31   ar
    27    31    36    1
    28    36    37    3
    29    31    32   ar
    30    32    33   ar
    31    33    34   ar
    32    34    35    1
    33    11    12   ar
    34    12    13    1
    35    12     2   ar
    36    10     4   ar
    37    34    29   ar
    38    19    14   ar
    39    23    24    1
    40    25    26    1
@<TRIPOS>MOLECULE
*****
 37 40 0 0 0
SMALL
GASTEIGER

@<TRIPOS>ATOM
      1 C          59.2896   85.6082    7.0553 C.3     1  UNL1        0.0530
      2 C          60.1606   86.2838    8.0727 C.ar    1  UNL1        0.0711
      3 N          59.7492   87.6040    8.6540 N.ar    1  UNL1       -0.2471
      4 C          60.6202   88.2796    9.6715 C.ar    1  UNL1        0.1020
      5 C          60.2088   89.5997   10.2528 C.ar    1  UNL1        0.0518
      6 C          61.0798   90.2752   11.2701 C.ar    1  UNL1        0.1593
      7 F          60.6685   91.5954   11.8515 F       1  UNL1       -0.2025
      8 C          62.3621   89.6306   11.7062 C.ar    1  UNL1        0.1117
      9 N          62.7735   88.3105   11.1249 N.ar    1  UNL1       -0.2402
     10 C          61.9025   87.6349   10.1075 C.ar    1  UNL1        0.1128
     11 C          62.3139   86.3147    9.5261 C.ar    1  UNL1        0.0760
     12 C          61.4429   85.6392    8.5088 C.ar    1  UNL1        0.0857
     13 CL         61.8542   84.3190    7.9274 Cl      1  UNL1       -0.0797
     14 C          63.2331   90.3062   12.7236 C.ar    1  UNL1        0.0582
     15 C          64.1700   91.3989   12.3017 C.ar    1  UNL1        0.1034
     16 N          65.0410   92.0745   13.3191 N.ar    1  UNL1       -0.2268
     17 C          64.9750   91.6573   14.7584 C.ar    1  UNL1        0.1630
     18 N          64.0379   90.5646   15.1803 N.ar    1  UNL1       -0.2268
     19 C          63.1670   89.8890   14.1629 C.ar    1  UNL1        0.1034
     20 C          65.8459   92.3329   15.7758 C.3     1  UNL1        0.1399
     21 C          66.9784   92.3537   14.7925 C.3     1  UNL1        0.0371
     22 C          64.7133   92.3121   16.7591 C.3     1  UNL1        0.0371
     23 O          66.7168   93.0084   16.7932 O.3     1  UNL1       -0.3796
     24 H          67.5950   93.1667   16.4130 H       1  UNL1        0.2108
     25 N          63.5962   85.6701    9.9622 N.pl3   1  UNL1       -0.3286
     26 H          64.4444   86.1649    9.8925 H       1  UNL1        0.1471
     27 C          63.5861   84.2716   10.5044 C.3     1  UNL1        0.0942
     28 C          63.9413   83.1188    9.6128 C.3     1  UNL1        0.0262
     29 C          63.2208   84.0258   11.9384 C.ar    1  UNL1        0.0236
     30 C          63.4117   85.1099   12.9574 C.ar    1  UNL1        0.0098
     31 C          63.0464   84.8641   14.3913 C.ar    1  UNL1        0.0683
     32 C          62.4902   83.5342   14.8062 C.ar    1  UNL1        0.0126
     33 C          62.2993   82.4502   13.7872 C.ar    1  UNL1        0.0301
     34 C          62.6646   82.6960   12.3533 C.ar    1  UNL1        0.1377
     35 F          62.4737   81.6119   11.3342 F       1  UNL1       -0.2044
     36 C          63.2373   85.9481   15.4103 C.1     1  UNL1        0.1004
     37 N          63.4282   87.0321   16.4294 N.1     1  UNL1       -0.1908
@<TRIPOS>BOND
     1     1     2    1
     2     2     3   ar
     3     3     4   ar
     4     4     5   ar
     5     5     6   ar
     6     6     7    1
     7     6     8   ar
     8     8    14    1
     9    14    15   ar
    10    15    16   ar
    11    16    17   ar
    12    17    20    1
    13    20    21    1
    14    20    22    1
    15    20    23    1
    16    17    18   ar
    17    18    19   ar
    18     8     9   ar
    19     9    10   ar
    20    10    11   ar
    21    11    25    1
    22    25    27    1
    23    27    28    1
    24    27    29    1
    25    29    30   ar
    26    30    31   ar
    27    31    36    1
    28    36    37    3
    29    31    32   ar
    30    32    33   ar
    31    33    34   ar
    32    34    35    1
    33    11    12   ar
    34    12    13    1
    35    12     2   ar
    36    10     4   ar
    37    34    29   ar
    38    19    14   ar
    39    23    24    1
    40    25    26    1
