@<TRIPOS>MOLECULE
*****
 33 35 0 0 0
SMALL
GASTEIGER

@<TRIPOS>ATOM
      1 C          63.8252   89.1626   13.6778 C.ar    1  UNL1        0.0949
      2 C          64.1569   87.7816   14.1602 C.ar    1  UNL1        0.0055
      3 C          63.6891   86.5844   13.3870 C.ar    1  UNL1       -0.0002
      4 C          62.8896   86.7682   12.1312 C.ar    1  UNL1        0.0746
      5 N          62.5579   88.1492   11.6487 N.ar    1  UNL1       -0.2901
      6 C          63.0257   89.3464   12.4220 C.ar    1  UNL1        0.2642
      7 O          62.6939   90.7274   11.9395 O.2     1  UNL1       -0.2669
      8 C          64.2929   90.3598   14.4511 C.2     1  UNL1        0.2033
      9 O          63.3806   91.0130   15.4464 O.2     1  UNL1       -0.2863
     10 C          66.1300   92.1192   14.9798 C.2     1  UNL1        0.1507
     11 O          65.2069   92.7907   15.9528 O.2     1  UNL1       -0.5043
     12 C          65.6731   90.9037   14.2289 C.2     1  UNL1        0.0799
     13 H          65.4923   93.5500   16.4219 H       1  UNL1        0.2922
     14 O          68.3590   92.1232   13.6450 O.co2   1  UNL1       -0.5416
     15 C          67.5102   92.6631   14.7577 C.2     1  UNL1        0.1068
     16 O          68.0415   93.7469   15.6482 O.co2   1  UNL1       -0.5416
     17 C          64.0209   85.2034   13.8695 C.3     1  UNL1        0.0564
     18 C          63.7413   84.0165   12.9960 C.ar    1  UNL1        0.0099
     19 C          64.5137   83.8222   11.7249 C.ar    1  UNL1        0.0006
     20 C          64.2342   82.6352   10.8514 C.ar    1  UNL1        0.0295
     21 C          63.1823   81.6425   11.2491 C.ar    1  UNL1        0.1424
     22 F          62.9027   80.4556   10.3756 F       1  UNL1       -0.2041
     23 C          62.4099   81.8368   12.5201 C.ar    1  UNL1        0.0589
     24 C          62.6895   83.0238   13.3936 C.ar    1  UNL1        0.1387
     25 F          61.9171   83.2181   14.6648 F       1  UNL1       -0.2044
     26 C          61.7583   88.3331   10.3929 C.3     1  UNL1        0.1380
     27 C          61.7138   87.2410    9.3656 C.ar    1  UNL1        0.0280
     28 C          62.9234   86.3871    9.1258 C.ar    1  UNL1       -0.0002
     29 C          62.8789   85.2950    8.0984 C.ar    1  UNL1       -0.0001
     30 C          61.6247   85.0570    7.3108 C.ar    1  UNL1        0.0023
     31 C          60.4150   85.9109    7.5506 C.ar    1  UNL1        0.0294
     32 C          60.4596   87.0030    8.5779 C.ar    1  UNL1        0.1380
     33 F          59.2499   87.8569    8.8177 F       1  UNL1       -0.2044
@<TRIPOS>UNITY_ATOM_ATTR
14 1
charge -1
@<TRIPOS>BOND
     1    14    15   ar
     2    15    16   ar
     3    15    10    1
     4    10    11    1
     5    10    12    2
     6    12     8    1
     7     8     9    2
     8     8     1    1
     9     1     2   ar
    10     2     3   ar
    11     3    17    1
    12    17    18    1
    13    18    19   ar
    14    19    20   ar
    15    20    21   ar
    16    21    22    1
    17    21    23   ar
    18    23    24   ar
    19    24    25    1
    20     3     4   ar
    21     4     5   ar
    22     5    26    1
    23    26    27    1
    24    27    28   ar
    25    28    29   ar
    26    29    30   ar
    27    30    31   ar
    28    31    32   ar
    29    32    33    1
    30     5     6   ar
    31     6     7    2
    32     6     1   ar
    33    24    18   ar
    34    32    27   ar
    35    11    13    1
@<TRIPOS>MOLECULE
*****
 33 35 0 0 0
SMALL
GASTEIGER

@<TRIPOS>ATOM
      1 C          63.4882   89.0863   13.1148 C.ar    1  UNL1        0.0949
      2 C          62.6367   89.1643   11.8825 C.ar    1  UNL1        0.0055
      3 C          62.1788   87.9061   11.2063 C.ar    1  UNL1       -0.0002
      4 C          62.5724   86.5698   11.7625 C.ar    1  UNL1        0.0746
      5 N          63.4240   86.4918   12.9949 N.ar    1  UNL1       -0.2901
      6 C          63.8819   87.7501   13.6710 C.ar    1  UNL1        0.2642
      7 O          64.7335   87.6720   14.9034 O.2     1  UNL1       -0.2669
      8 C          63.9461   90.3446   13.7909 C.2     1  UNL1        0.2033
      9 O          63.2512   90.8257   15.0301 O.2     1  UNL1       -0.2863
     10 C          65.7950   92.1481   14.0717 C.2     1  UNL1        0.1507
     11 O          65.3383   92.3973   15.4785 O.2     1  UNL1       -0.5043
     12 C          65.0989   91.1217   13.2279 C.2     1  UNL1        0.0799
     13 H          65.7731   93.0385   16.0056 H       1  UNL1        0.2922
     14 O          66.6987   94.0300   12.5251 O.co2   1  UNL1       -0.5416
     15 C          66.9479   92.9252   13.5086 C.2     1  UNL1        0.1068
     16 O          68.3500   92.5975   13.9291 O.co2   1  UNL1       -0.5416
     17 C          61.3272   87.9841    9.9739 C.3     1  UNL1        0.0564
     18 C          61.4114   86.9059    8.9346 C.ar    1  UNL1        0.0099
     19 C          62.7022   86.1733    8.7168 C.ar    1  UNL1        0.0006
     20 C          62.7865   85.0951    7.6774 C.ar    1  UNL1        0.0295
     21 C          61.5800   84.7494    6.8558 C.ar    1  UNL1        0.1424
     22 F          61.6642   83.6711    5.8165 F       1  UNL1       -0.2041
     23 C          60.2893   85.4819    7.0736 C.ar    1  UNL1        0.0589
     24 C          60.2050   86.5602    8.1130 C.ar    1  UNL1        0.1387
     25 F          58.9143   87.2927    8.3308 F       1  UNL1       -0.2044
     26 C          63.8177   85.1555   13.5512 C.3     1  UNL1        0.1380
     27 C          63.5877   83.9108   12.7463 C.ar    1  UNL1        0.0280
     28 C          64.2991   83.7205   11.4395 C.ar    1  UNL1       -0.0002
     29 C          64.0692   82.4758   10.6347 C.ar    1  UNL1       -0.0001
     30 C          63.1278   81.4214   11.1365 C.ar    1  UNL1        0.0023
     31 C          62.4163   81.6117   12.4433 C.ar    1  UNL1        0.0294
     32 C          62.6463   82.8564   13.2482 C.ar    1  UNL1        0.1380
     33 F          61.9349   83.0466   14.5550 F       1  UNL1       -0.2044
@<TRIPOS>UNITY_ATOM_ATTR
14 1
charge -1
@<TRIPOS>BOND
     1    14    15   ar
     2    15    16   ar
     3    15    10    1
     4    10    11    1
     5    10    12    2
     6    12     8    1
     7     8     9    2
     8     8     1    1
     9     1     2   ar
    10     2     3   ar
    11     3    17    1
    12    17    18    1
    13    18    19   ar
    14    19    20   ar
    15    20    21   ar
    16    21    22    1
    17    21    23   ar
    18    23    24   ar
    19    24    25    1
    20     3     4   ar
    21     4     5   ar
    22     5    26    1
    23    26    27    1
    24    27    28   ar
    25    28    29   ar
    26    29    30   ar
    27    30    31   ar
    28    31    32   ar
    29    32    33    1
    30     5     6   ar
    31     6     7    2
    32     6     1   ar
    33    24    18   ar
    34    32    27   ar
    35    11    13    1
@<TRIPOS>MOLECULE
*****
 33 35 0 0 0
SMALL
GASTEIGER

@<TRIPOS>ATOM
      1 C          63.9142   89.5709   13.6999 C.ar    1  UNL1        0.0949
      2 C          62.8802   89.4953   12.6159 C.ar    1  UNL1        0.0055
      3 C          62.8733   90.5126   11.5136 C.ar    1  UNL1       -0.0002
      4 C          63.9004   91.6056   11.4954 C.ar    1  UNL1        0.0746
      5 N          64.9344   91.6813   12.5794 N.ar    1  UNL1       -0.2901
      6 C          64.9413   90.6639   13.6816 C.ar    1  UNL1        0.2642
      7 O          65.9753   90.7396   14.7656 O.2     1  UNL1       -0.2669
      8 C          63.9211   88.5536   14.8021 C.2     1  UNL1        0.2033
      9 O          63.4161   88.9217   16.1657 O.2     1  UNL1       -0.2863
     10 C          63.8654   86.0038   15.2973 C.2     1  UNL1        0.1507
     11 O          62.7860   86.2249   16.3151 O.2     1  UNL1       -0.5043
     12 C          64.4329   87.1681   14.5408 C.2     1  UNL1        0.0799
     13 H          62.4315   85.4976   16.7876 H       1  UNL1        0.2922
     14 O          63.6278   83.4301   15.5619 O.co2   1  UNL1       -0.5416
     15 C          64.3773   84.6182   15.0359 C.2     1  UNL1        0.1068
     16 O          65.6386   84.4208   14.2484 O.co2   1  UNL1       -0.5416
     17 C          61.8392   90.4369   10.4296 C.3     1  UNL1        0.0564
     18 C          61.5358   89.1229    9.7730 C.ar    1  UNL1        0.0099
     19 C          62.4576   87.9559    9.9692 C.ar    1  UNL1        0.0006
     20 C          62.1542   86.6418    9.3126 C.ar    1  UNL1        0.0295
     21 C          60.9291   86.4947    8.4596 C.ar    1  UNL1        0.1424
     22 F          60.6257   85.1807    7.8030 F       1  UNL1       -0.2041
     23 C          60.0074   87.6617    8.2634 C.ar    1  UNL1        0.0589
     24 C          60.3107   88.9758    8.9201 C.ar    1  UNL1        0.1387
     25 F          59.3889   90.1428    8.7238 F       1  UNL1       -0.2044
     26 C          65.9615   92.7743   12.5611 C.3     1  UNL1        0.1380
     27 C          66.7159   93.0736   11.2996 C.ar    1  UNL1        0.0280
     28 C          67.6558   92.0540   10.7279 C.ar    1  UNL1       -0.0002
     29 C          68.4101   92.3533    9.4664 C.ar    1  UNL1       -0.0001
     30 C          68.2246   93.6723    8.7766 C.ar    1  UNL1        0.0023
     31 C          67.2846   94.6920    9.3483 C.ar    1  UNL1        0.0294
     32 C          66.5303   94.3927   10.6098 C.ar    1  UNL1        0.1380
     33 F          65.5904   95.4123   11.1815 F       1  UNL1       -0.2044
@<TRIPOS>UNITY_ATOM_ATTR
14 1
charge -1
@<TRIPOS>BOND
     1    14    15   ar
     2    15    16   ar
     3    15    10    1
     4    10    11    1
     5    10    12    2
     6    12     8    1
     7     8     9    2
     8     8     1    1
     9     1     2   ar
    10     2     3   ar
    11     3    17    1
    12    17    18    1
    13    18    19   ar
    14    19    20   ar
    15    20    21   ar
    16    21    22    1
    17    21    23   ar
    18    23    24   ar
    19    24    25    1
    20     3     4   ar
    21     4     5   ar
    22     5    26    1
    23    26    27    1
    24    27    28   ar
    25    28    29   ar
    26    29    30   ar
    27    30    31   ar
    28    31    32   ar
    29    32    33    1
    30     5     6   ar
    31     6     7    2
    32     6     1   ar
    33    24    18   ar
    34    32    27   ar
    35    11    13    1
@<TRIPOS>MOLECULE
*****
 33 35 0 0 0
SMALL
GASTEIGER

@<TRIPOS>ATOM
      1 C          63.2145   88.8522   12.7973 C.ar    1  UNL1        0.0949
      2 C          63.8342   87.6813   13.5008 C.ar    1  UNL1        0.0055
      3 C          63.4644   86.2840   13.1001 C.ar    1  UNL1       -0.0002
      4 C          62.4749   86.0575   11.9958 C.ar    1  UNL1        0.0746
      5 N          61.8552   87.2283   11.2923 N.ar    1  UNL1       -0.2901
      6 C          62.2250   88.6257   11.6930 C.ar    1  UNL1        0.2642
      7 O          61.6052   89.7966   10.9894 O.2     1  UNL1       -0.2669
      8 C          63.5843   90.2496   13.1980 C.2     1  UNL1        0.2033
      9 O          63.2816   90.7374   14.5838 O.2     1  UNL1       -0.2863
     10 C          65.1351   92.2736   12.6996 C.2     1  UNL1        0.1507
     11 O          65.3407   92.4785   14.1712 O.2     1  UNL1       -0.5043
     12 C          64.2569   91.1591   12.2130 C.2     1  UNL1        0.0799
     13 H          65.8892   93.1747   14.4752 H       1  UNL1        0.2922
     14 O          65.1594   93.4670   10.3920 O.co2   1  UNL1       -0.5416
     15 C          65.8076   93.1832   11.7145 C.2     1  UNL1        0.1068
     16 O          67.1284   93.8089   12.0521 O.co2   1  UNL1       -0.5416
     17 C          64.0842   85.1131   13.8037 C.3     1  UNL1        0.0564
     18 C          63.5621   83.7284   13.5582 C.ar    1  UNL1        0.0099
     19 C          62.6647   83.0755   14.5673 C.ar    1  UNL1        0.0006
     20 C          62.1426   81.6908   14.3219 C.ar    1  UNL1        0.0295
     21 C          62.5180   80.9592   13.0673 C.ar    1  UNL1        0.1424
     22 F          61.9960   79.5745   12.8219 F       1  UNL1       -0.2041
     23 C          63.4154   81.6122   12.0583 C.ar    1  UNL1        0.0589
     24 C          63.9375   82.9968   12.3038 C.ar    1  UNL1        0.1387
     25 F          64.8350   83.6498   11.2946 F       1  UNL1       -0.2044
     26 C          60.8656   87.0018   10.1879 C.3     1  UNL1        0.1380
     27 C          61.2658   86.2223    8.9704 C.ar    1  UNL1        0.0280
     28 C          62.6618   85.6876    8.8477 C.ar    1  UNL1       -0.0002
     29 C          63.0621   84.9081    7.6302 C.ar    1  UNL1       -0.0001
     30 C          62.0663   84.6633    6.5355 C.ar    1  UNL1        0.0023
     31 C          60.6701   85.1981    6.6582 C.ar    1  UNL1        0.0294
     32 C          60.2699   85.9776    7.8757 C.ar    1  UNL1        0.1380
     33 F          58.8739   86.5123    7.9985 F       1  UNL1       -0.2044
@<TRIPOS>UNITY_ATOM_ATTR
14 1
charge -1
@<TRIPOS>BOND
     1    14    15   ar
     2    15    16   ar
     3    15    10    1
     4    10    11    1
     5    10    12    2
     6    12     8    1
     7     8     9    2
     8     8     1    1
     9     1     2   ar
    10     2     3   ar
    11     3    17    1
    12    17    18    1
    13    18    19   ar
    14    19    20   ar
    15    20    21   ar
    16    21    22    1
    17    21    23   ar
    18    23    24   ar
    19    24    25    1
    20     3     4   ar
    21     4     5   ar
    22     5    26    1
    23    26    27    1
    24    27    28   ar
    25    28    29   ar
    26    29    30   ar
    27    30    31   ar
    28    31    32   ar
    29    32    33    1
    30     5     6   ar
    31     6     7    2
    32     6     1   ar
    33    24    18   ar
    34    32    27   ar
    35    11    13    1
@<TRIPOS>MOLECULE
*****
 33 35 0 0 0
SMALL
GASTEIGER

@<TRIPOS>ATOM
      1 C          63.0261   90.0330   11.6563 C.ar    1  UNL1        0.0949
      2 C          63.2611   89.2749   12.9291 C.ar    1  UNL1        0.0055
      3 C          64.2468   89.7881   13.9366 C.ar    1  UNL1       -0.0002
      4 C          64.9974   91.0594   13.6714 C.ar    1  UNL1        0.0746
      5 N          64.7624   91.8174   12.3986 N.ar    1  UNL1       -0.2901
      6 C          63.7767   91.3043   11.3911 C.ar    1  UNL1        0.2642
      7 O          63.5417   92.0624   10.1183 O.2     1  UNL1       -0.2669
      8 C          62.0405   89.5198   10.6488 C.2     1  UNL1        0.2033
      9 O          60.7192   90.2080   10.4742 O.2     1  UNL1       -0.2863
     10 C          61.9537   86.9515   10.2666 C.2     1  UNL1        0.1507
     11 O          61.1958   86.7860   11.5504 O.2     1  UNL1       -0.5043
     12 C          62.3761   88.3184    9.8158 C.2     1  UNL1        0.0799
     13 H          60.9320   85.9321   11.8319 H       1  UNL1        0.2922
     14 O          63.0456   84.6050   10.0392 O.co2   1  UNL1       -0.5416
     15 C          62.2894   85.7500    9.4336 C.2     1  UNL1        0.1068
     16 O          61.8687   85.6937    7.9948 O.co2   1  UNL1       -0.5416
     17 C          64.4818   89.0299   15.2095 C.3     1  UNL1        0.0564
     18 C          64.0361   87.6023   15.3253 C.ar    1  UNL1        0.0099
     19 C          64.3071   86.6390   14.2078 C.ar    1  UNL1        0.0006
     20 C          63.8614   85.2115   14.3236 C.ar    1  UNL1        0.0295
     21 C          63.1448   84.7472   15.5569 C.ar    1  UNL1        0.1424
     22 F          62.6991   83.3196   15.6727 F       1  UNL1       -0.2041
     23 C          62.8739   85.7105   16.6743 C.ar    1  UNL1        0.0589
     24 C          63.3196   87.1380   16.5585 C.ar    1  UNL1        0.1387
     25 F          63.0486   88.1013   17.6760 F       1  UNL1       -0.2044
     26 C          65.5130   93.0888   12.1333 C.3     1  UNL1        0.1380
     27 C          66.4689   93.1687   10.9801 C.ar    1  UNL1        0.0280
     28 C          67.4956   92.0934   10.7811 C.ar    1  UNL1       -0.0002
     29 C          68.4515   92.1733    9.6279 C.ar    1  UNL1       -0.0001
     30 C          68.3806   93.3284    8.6737 C.ar    1  UNL1        0.0023
     31 C          67.3538   94.4037    8.8726 C.ar    1  UNL1        0.0294
     32 C          66.3980   94.3239   10.0258 C.ar    1  UNL1        0.1380
     33 F          65.3712   95.3991   10.2248 F       1  UNL1       -0.2044
@<TRIPOS>UNITY_ATOM_ATTR
14 1
charge -1
@<TRIPOS>BOND
     1    14    15   ar
     2    15    16   ar
     3    15    10    1
     4    10    11    1
     5    10    12    2
     6    12     8    1
     7     8     9    2
     8     8     1    1
     9     1     2   ar
    10     2     3   ar
    11     3    17    1
    12    17    18    1
    13    18    19   ar
    14    19    20   ar
    15    20    21   ar
    16    21    22    1
    17    21    23   ar
    18    23    24   ar
    19    24    25    1
    20     3     4   ar
    21     4     5   ar
    22     5    26    1
    23    26    27    1
    24    27    28   ar
    25    28    29   ar
    26    29    30   ar
    27    30    31   ar
    28    31    32   ar
    29    32    33    1
    30     5     6   ar
    31     6     7    2
    32     6     1   ar
    33    24    18   ar
    34    32    27   ar
    35    11    13    1
@<TRIPOS>MOLECULE
*****
 33 35 0 0 0
SMALL
GASTEIGER

@<TRIPOS>ATOM
      1 C          62.8113   88.5104   11.9545 C.ar    1  UNL1        0.0949
      2 C          63.2626   87.2390   12.6102 C.ar    1  UNL1        0.0055
      3 C          63.9980   87.2889   13.9165 C.ar    1  UNL1       -0.0002
      4 C          64.2823   88.6101   14.5673 C.ar    1  UNL1        0.0746
      5 N          63.8310   89.8815   13.9116 N.ar    1  UNL1       -0.2901
      6 C          63.0955   89.8316   12.6052 C.ar    1  UNL1        0.2642
      7 O          62.6442   91.1031   11.9496 O.2     1  UNL1       -0.2669
      8 C          62.0758   88.4605   10.6482 C.2     1  UNL1        0.2033
      9 O          61.0970   89.5414   10.2968 O.2     1  UNL1       -0.2863
     10 C          61.2011   86.8216    8.8319 C.2     1  UNL1        0.1507
     11 O          59.8397   87.4442    8.9257 O.2     1  UNL1       -0.5043
     12 C          62.3191   87.3297    9.6932 C.2     1  UNL1        0.0799
     13 H          59.1413   87.1268    8.3877 H       1  UNL1        0.2922
     14 O          62.8059   85.0682    7.7829 O.co2   1  UNL1       -0.5416
     15 C          61.4445   85.6907    7.8769 C.2     1  UNL1        0.1068
     16 O          60.3263   85.1824    7.0159 O.co2   1  UNL1       -0.5416
     17 C          64.4493   86.0174   14.5722 C.3     1  UNL1        0.0564
     18 C          63.8482   84.7065   14.1596 C.ar    1  UNL1        0.0099
     19 C          64.3860   83.9781   12.9637 C.ar    1  UNL1        0.0006
     20 C          63.7849   82.6672   12.5511 C.ar    1  UNL1        0.0295
     21 C          62.6460   82.0847   13.3345 C.ar    1  UNL1        0.1424
     22 F          62.0449   80.7738   12.9220 F       1  UNL1       -0.2041
     23 C          62.1083   82.8131   14.5304 C.ar    1  UNL1        0.0589
     24 C          62.7094   84.1240   14.9430 C.ar    1  UNL1        0.1387
     25 F          62.1716   84.8524   16.1390 F       1  UNL1       -0.2044
     26 C          64.1152   91.2028   14.5623 C.3     1  UNL1        0.1380
     27 C          65.5308   91.6751   14.7139 C.ar    1  UNL1        0.0280
     28 C          66.5148   91.4649   13.6015 C.ar    1  UNL1       -0.0002
     29 C          67.9304   91.9371   13.7531 C.ar    1  UNL1       -0.0001
     30 C          68.3621   92.6196   15.0172 C.ar    1  UNL1        0.0023
     31 C          67.3781   92.8298   16.1297 C.ar    1  UNL1        0.0294
     32 C          65.9624   92.3576   15.9781 C.ar    1  UNL1        0.1380
     33 F          64.9785   92.5678   17.0905 F       1  UNL1       -0.2044
@<TRIPOS>UNITY_ATOM_ATTR
14 1
charge -1
@<TRIPOS>BOND
     1    14    15   ar
     2    15    16   ar
     3    15    10    1
     4    10    11    1
     5    10    12    2
     6    12     8    1
     7     8     9    2
     8     8     1    1
     9     1     2   ar
    10     2     3   ar
    11     3    17    1
    12    17    18    1
    13    18    19   ar
    14    19    20   ar
    15    20    21   ar
    16    21    22    1
    17    21    23   ar
    18    23    24   ar
    19    24    25    1
    20     3     4   ar
    21     4     5   ar
    22     5    26    1
    23    26    27    1
    24    27    28   ar
    25    28    29   ar
    26    29    30   ar
    27    30    31   ar
    28    31    32   ar
    29    32    33    1
    30     5     6   ar
    31     6     7    2
    32     6     1   ar
    33    24    18   ar
    34    32    27   ar
    35    11    13    1
@<TRIPOS>MOLECULE
*****
 33 35 0 0 0
SMALL
GASTEIGER

@<TRIPOS>ATOM
      1 C          63.4247   85.9332   12.9951 C.ar    1  UNL1        0.0949
      2 C          62.5184   86.0441   11.8050 C.ar    1  UNL1        0.0055
      3 C          62.1158   87.3950   11.2922 C.ar    1  UNL1       -0.0002
      4 C          62.6194   88.6350   11.9694 C.ar    1  UNL1        0.0746
      5 N          63.5257   88.5241   13.1595 N.ar    1  UNL1       -0.2901
      6 C          63.9283   87.1732   13.6723 C.ar    1  UNL1        0.2642
      7 O          64.8346   87.0623   14.8625 O.2     1  UNL1       -0.2669
      8 C          63.8273   84.5823   13.5079 C.2     1  UNL1        0.2033
      9 O          65.0024   84.4501   14.4306 O.2     1  UNL1       -0.2863
     10 C          62.5888   82.3866   14.1363 C.2     1  UNL1        0.1507
     11 O          62.8953   82.6282   15.5846 O.2     1  UNL1       -0.5043
     12 C          63.0548   83.3637   13.0980 C.2     1  UNL1        0.0799
     13 H          62.6042   82.0179   16.2333 H       1  UNL1        0.2922
     14 O          62.3955   80.2151   12.7231 O.co2   1  UNL1       -0.5416
     15 C          61.8162   81.1679   13.7263 C.2     1  UNL1        0.1068
     16 O          60.4645   80.9021   14.3196 O.co2   1  UNL1       -0.5416
     17 C          61.2095   87.5059   10.1020 C.3     1  UNL1        0.0564
     18 C          61.3730   86.5657    8.9447 C.ar    1  UNL1        0.0099
     19 C          62.7100   85.9457    8.6652 C.ar    1  UNL1        0.0006
     20 C          62.8735   85.0055    7.5079 C.ar    1  UNL1        0.0295
     21 C          61.7000   84.6855    6.6300 C.ar    1  UNL1        0.1424
     22 F          61.8634   83.7453    5.4727 F       1  UNL1       -0.2041
     23 C          60.3631   85.3055    6.9095 C.ar    1  UNL1        0.0589
     24 C          60.1996   86.2457    8.0669 C.ar    1  UNL1        0.1387
     25 F          58.8626   86.8657    8.3463 F       1  UNL1       -0.2044
     26 C          64.0294   89.7641   13.8368 C.3     1  UNL1        0.1380
     27 C          64.6536   90.8608   13.0258 C.ar    1  UNL1        0.0280
     28 C          64.0583   91.2484   11.7047 C.ar    1  UNL1       -0.0002
     29 C          64.6825   92.3451   10.8938 C.ar    1  UNL1       -0.0001
     30 C          65.9019   93.0542   11.4039 C.ar    1  UNL1        0.0023
     31 C          66.4972   92.6665   12.7250 C.ar    1  UNL1        0.0294
     32 C          65.8730   91.5698   13.5360 C.ar    1  UNL1        0.1380
     33 F          66.4683   91.1822   14.8571 F       1  UNL1       -0.2044
@<TRIPOS>UNITY_ATOM_ATTR
14 1
charge -1
@<TRIPOS>BOND
     1    14    15   ar
     2    15    16   ar
     3    15    10    1
     4    10    11    1
     5    10    12    2
     6    12     8    1
     7     8     9    2
     8     8     1    1
     9     1     2   ar
    10     2     3   ar
    11     3    17    1
    12    17    18    1
    13    18    19   ar
    14    19    20   ar
    15    20    21   ar
    16    21    22    1
    17    21    23   ar
    18    23    24   ar
    19    24    25    1
    20     3     4   ar
    21     4     5   ar
    22     5    26    1
    23    26    27    1
    24    27    28   ar
    25    28    29   ar
    26    29    30   ar
    27    30    31   ar
    28    31    32   ar
    29    32    33    1
    30     5     6   ar
    31     6     7    2
    32     6     1   ar
    33    24    18   ar
    34    32    27   ar
    35    11    13    1
@<TRIPOS>MOLECULE
*****
 33 35 0 0 0
SMALL
GASTEIGER

@<TRIPOS>ATOM
      1 C          62.1958   87.6014   11.1252 C.ar    1  UNL1        0.0949
      2 C          62.7562   86.4686   11.9330 C.ar    1  UNL1        0.0055
      3 C          63.5395   86.7526   13.1804 C.ar    1  UNL1       -0.0002
      4 C          63.7625   88.1693   13.6198 C.ar    1  UNL1        0.0746
      5 N          63.2021   89.3021   12.8120 N.ar    1  UNL1       -0.2901
      6 C          62.4187   89.0182   11.5646 C.ar    1  UNL1        0.2642
      7 O          61.8583   90.1511   10.7568 O.2     1  UNL1       -0.2669
      8 C          61.4125   87.3175    9.8779 C.2     1  UNL1        0.2033
      9 O          60.0538   87.9250    9.6909 O.2     1  UNL1       -0.2863
     10 C          61.0793   85.7371    7.8428 C.2     1  UNL1        0.1507
     11 O          59.5956   85.9395    7.9285 O.2     1  UNL1       -0.5043
     12 C          61.9878   86.4261    8.8175 C.2     1  UNL1        0.0799
     13 H          59.0281   85.5091    7.3197 H       1  UNL1        0.2922
     14 O          60.7430   84.0982    5.8552 O.co2   1  UNL1       -0.5416
     15 C          61.6547   84.8457    6.7825 C.2     1  UNL1        0.1068
     16 O          63.1419   84.7019    6.6494 O.co2   1  UNL1       -0.5416
     17 C          64.0999   85.6197   13.9882 C.3     1  UNL1        0.0564
     18 C          63.6564   84.2129   13.7157 C.ar    1  UNL1        0.0099
     19 C          64.3583   83.3939   12.6732 C.ar    1  UNL1        0.0006
     20 C          63.9148   81.9871   12.4006 C.ar    1  UNL1        0.0295
     21 C          62.7695   81.3993   13.1705 C.ar    1  UNL1        0.1424
     22 F          62.3260   79.9925   12.8979 F       1  UNL1       -0.2041
     23 C          62.0676   82.2183   14.2129 C.ar    1  UNL1        0.0589
     24 C          62.5111   83.6251   14.4855 C.ar    1  UNL1        0.1387
     25 F          61.8092   84.4440   15.5280 F       1  UNL1       -0.2044
     26 C          63.4250   90.7189   13.2514 C.3     1  UNL1        0.1380
     27 C          64.8193   91.2631   13.3494 C.ar    1  UNL1        0.0280
     28 C          65.6343   91.0199   14.5849 C.ar    1  UNL1       -0.0002
     29 C          67.0286   91.5642   14.6829 C.ar    1  UNL1       -0.0001
     30 C          67.6080   92.3516   13.5453 C.ar    1  UNL1        0.0023
     31 C          66.7931   92.5949   12.3097 C.ar    1  UNL1        0.0294
     32 C          65.3987   92.0506   12.2117 C.ar    1  UNL1        0.1380
     33 F          64.5838   92.2938   10.9761 F       1  UNL1       -0.2044
@<TRIPOS>UNITY_ATOM_ATTR
14 1
charge -1
@<TRIPOS>BOND
     1    14    15   ar
     2    15    16   ar
     3    15    10    1
     4    10    11    1
     5    10    12    2
     6    12     8    1
     7     8     9    2
     8     8     1    1
     9     1     2   ar
    10     2     3   ar
    11     3    17    1
    12    17    18    1
    13    18    19   ar
    14    19    20   ar
    15    20    21   ar
    16    21    22    1
    17    21    23   ar
    18    23    24   ar
    19    24    25    1
    20     3     4   ar
    21     4     5   ar
    22     5    26    1
    23    26    27    1
    24    27    28   ar
    25    28    29   ar
    26    29    30   ar
    27    30    31   ar
    28    31    32   ar
    29    32    33    1
    30     5     6   ar
    31     6     7    2
    32     6     1   ar
    33    24    18   ar
    34    32    27   ar
    35    11    13    1
@<TRIPOS>MOLECULE
*****
 33 35 0 0 0
SMALL
GASTEIGER

@<TRIPOS>ATOM
      1 C          62.7959   89.0055   11.7991 C.ar    1  UNL1        0.0949
      2 C          63.1569   87.9373   12.7883 C.ar    1  UNL1        0.0055
      3 C          64.1296   88.2340   13.8909 C.ar    1  UNL1       -0.0002
      4 C          64.7413   89.5989   14.0043 C.ar    1  UNL1        0.0746
      5 N          64.3803   90.6671   13.0151 N.ar    1  UNL1       -0.2901
      6 C          63.4076   90.3704   11.9124 C.ar    1  UNL1        0.2642
      7 O          63.0466   91.4386   10.9232 O.2     1  UNL1       -0.2669
      8 C          61.8231   88.7088   10.6965 C.2     1  UNL1        0.2033
      9 O          60.5340   89.4707   10.6084 O.2     1  UNL1       -0.2863
     10 C          61.0281   86.9023    9.0070 C.2     1  UNL1        0.1507
     11 O          59.6005   87.2129    9.3466 O.2     1  UNL1       -0.5043
     12 C          62.1394   87.6503    9.6819 C.2     1  UNL1        0.0799
     13 H          58.9063   86.7457    8.9250 H       1  UNL1        0.2922
     14 O          60.2722   85.3446    7.0699 O.co2   1  UNL1       -0.5416
     15 C          61.3445   85.8437    7.9924 C.2     1  UNL1        0.1068
     16 O          62.7332   85.2842    7.9004 O.co2   1  UNL1       -0.5416
     17 C          64.4906   87.1658   14.8802 C.3     1  UNL1        0.0564
     18 C          63.8667   85.8057   14.7764 C.ar    1  UNL1        0.0099
     19 C          64.0464   84.9913   13.5295 C.ar    1  UNL1        0.0006
     20 C          63.4225   83.6311   13.4257 C.ar    1  UNL1        0.0295
     21 C          62.6188   83.0854   14.5687 C.ar    1  UNL1        0.1424
     22 F          61.9948   81.7253   14.4649 F       1  UNL1       -0.2041
     23 C          62.4391   83.8998   15.8154 C.ar    1  UNL1        0.0589
     24 C          63.0630   85.2599   15.9193 C.ar    1  UNL1        0.1387
     25 F          62.8833   86.0743   17.1661 F       1  UNL1       -0.2044
     26 C          64.9921   92.0320   13.1284 C.3     1  UNL1        0.1380
     27 C          66.1720   92.2527   14.0279 C.ar    1  UNL1        0.0280
     28 C          65.9601   92.5795   15.4764 C.ar    1  UNL1       -0.0002
     29 C          67.1400   92.8002   16.3759 C.ar    1  UNL1       -0.0001
     30 C          68.5318   92.6941   15.8269 C.ar    1  UNL1        0.0023
     31 C          68.7438   92.3672   14.3783 C.ar    1  UNL1        0.0294
     32 C          67.5639   92.1465   13.4788 C.ar    1  UNL1        0.1380
     33 F          67.7759   91.8197   12.0303 F       1  UNL1       -0.2044
@<TRIPOS>UNITY_ATOM_ATTR
14 1
charge -1
@<TRIPOS>BOND
     1    14    15   ar
     2    15    16   ar
     3    15    10    1
     4    10    11    1
     5    10    12    2
     6    12     8    1
     7     8     9    2
     8     8     1    1
     9     1     2   ar
    10     2     3   ar
    11     3    17    1
    12    17    18    1
    13    18    19   ar
    14    19    20   ar
    15    20    21   ar
    16    21    22    1
    17    21    23   ar
    18    23    24   ar
    19    24    25    1
    20     3     4   ar
    21     4     5   ar
    22     5    26    1
    23    26    27    1
    24    27    28   ar
    25    28    29   ar
    26    29    30   ar
    27    30    31   ar
    28    31    32   ar
    29    32    33    1
    30     5     6   ar
    31     6     7    2
    32     6     1   ar
    33    24    18   ar
    34    32    27   ar
    35    11    13    1
