@<TRIPOS>MOLECULE
*****
 35 39 0 0 0
SMALL
GASTEIGER

@<TRIPOS>ATOM
      1 C          60.5238   86.0217    8.3277 C.3     1  UNL1        0.0818
      2 C          62.7489   84.9557    7.5136 C.3     1  UNL1        0.0896
      3 N          61.8958   85.4927    8.6243 N.3     1  UNL1       -0.2710
      4 C          62.4146   85.5006   10.0317 C.3     1  UNL1        0.0728
      5 C          63.4419   84.4941   10.4581 C.3     1  UNL1        0.0261
      6 C          63.3810   83.8964   11.8325 C.3     1  UNL1        0.0459
      7 C          63.5997   84.6290   13.1230 C.ar    1  UNL1       -0.0184
      8 C          63.9201   86.0638   13.4207 C.ar    1  UNL1       -0.0040
      9 C          64.0854   86.5161   14.8413 C.ar    1  UNL1       -0.0003
     10 C          63.9303   85.5337   15.9641 C.ar    1  UNL1       -0.0000
     11 C          63.6099   84.0989   15.6664 C.ar    1  UNL1       -0.0003
     12 C          63.4446   83.6466   14.2458 C.ar    1  UNL1       -0.0040
     13 C          63.1300   82.3068   13.6492 C.ar    1  UNL1       -0.0040
     14 C          62.8742   80.9661   14.2714 C.ar    1  UNL1       -0.0003
     15 C          62.5791   79.7798   13.4021 C.ar    1  UNL1       -0.0000
     16 C          62.5398   79.9342   11.9106 C.ar    1  UNL1       -0.0003
     17 C          62.7956   81.2748   11.2884 C.ar    1  UNL1       -0.0040
     18 C          63.0907   82.4611   12.1577 C.ar    1  UNL1       -0.0184
     19 C          59.9636   87.1511    9.1405 C.3     1  UNL1        0.1026
     20 C          60.4301   88.5553    8.8949 C.2     1  UNL1        0.2271
     21 O          59.9308   89.3135    7.7008 O.2     1  UNL1       -0.2748
     22 N          61.3960   89.2014    9.8435 N.am    1  UNL1       -0.2760
     23 C          61.8953   88.4431   11.0375 C.3     1  UNL1        0.1148
     24 C          62.8612   89.0892   11.9860 C.3     1  UNL1        0.1123
     25 N          63.3277   90.4935   11.7404 N.pl3   1  UNL1       -0.3040
     26 C          62.8285   91.2518   10.5464 C.3     1  UNL1        0.1123
     27 C          61.8626   90.6057    9.5979 C.3     1  UNL1        0.1148
     28 C          64.2936   91.1396   12.6889 C.ar    1  UNL1        0.0503
     29 C          64.5027   90.5603   14.0568 C.ar    1  UNL1        0.0170
     30 C          65.4685   91.2064   15.0053 C.ar    1  UNL1        0.0332
     31 C          66.2254   92.4318   14.5860 C.ar    1  UNL1        0.1675
     32 F          67.1912   93.0779   15.5345 F       1  UNL1       -0.2018
     33 C          66.0163   93.0110   13.2182 C.ar    1  UNL1        0.1686
     34 F          66.7731   94.2363   12.7990 F       1  UNL1       -0.2018
     35 C          65.0504   92.3649   12.2697 C.ar    1  UNL1        0.0465
@<TRIPOS>BOND
     1     2     3    1
     2     3     1    1
     3     1    19    1
     4    19    20    1
     5    20    21    2
     6    20    22   am
     7    22    23    1
     8    23    24    1
     9    24    25    1
    10    25    28    1
    11    28    29   ar
    12    29    30   ar
    13    30    31   ar
    14    31    32    1
    15    31    33   ar
    16    33    34    1
    17    33    35   ar
    18    25    26    1
    19    26    27    1
    20     3     4    1
    21     4     5    1
    22     5     6    1
    23     6     7    1
    24     7     8   ar
    25     8     9   ar
    26     9    10   ar
    27    10    11   ar
    28    11    12   ar
    29    12    13    1
    30    13    14   ar
    31    14    15   ar
    32    15    16   ar
    33    16    17   ar
    34    17    18   ar
    35    27    22    1
    36    18     6    1
    37    35    28   ar
    38    12     7   ar
    39    18    13   ar
@<TRIPOS>MOLECULE
*****
 35 39 0 0 0
SMALL
GASTEIGER

@<TRIPOS>ATOM
      1 C          60.5695   86.0295    8.3048 C.3     1  UNL1        0.0818
      2 C          62.7582   84.9323    7.4352 C.3     1  UNL1        0.0896
      3 N          61.9407   85.4808    8.5670 N.3     1  UNL1       -0.2710
      4 C          62.4946   85.4806    9.9610 C.3     1  UNL1        0.0728
      5 C          63.4688   84.4200   10.3808 C.3     1  UNL1        0.0261
      6 C          63.3909   83.8332   11.7591 C.3     1  UNL1        0.0459
      7 C          63.0908   82.4018   12.0923 C.ar    1  UNL1       -0.0184
      8 C          62.7997   81.2101   11.2291 C.ar    1  UNL1       -0.0040
      9 C          62.5315   79.8755   11.8589 C.ar    1  UNL1       -0.0003
     10 C          62.5545   79.7325   13.3519 C.ar    1  UNL1       -0.0000
     11 C          62.8456   80.9241   14.2151 C.ar    1  UNL1       -0.0003
     12 C          63.1138   82.2588   13.5853 C.ar    1  UNL1       -0.0040
     13 C          63.4281   83.6018   14.1748 C.ar    1  UNL1       -0.0040
     14 C          63.5804   84.0645   15.5935 C.ar    1  UNL1       -0.0003
     15 C          63.9040   85.5001   15.8836 C.ar    1  UNL1       -0.0000
     16 C          64.0752   86.4732   14.7549 C.ar    1  UNL1       -0.0003
     17 C          63.9229   86.0106   13.3362 C.ar    1  UNL1       -0.0040
     18 C          63.5993   84.5749   13.0462 C.ar    1  UNL1       -0.0184
     19 C          60.0295   87.1383    9.1586 C.3     1  UNL1        0.1026
     20 C          60.4731   88.5515    8.9215 C.2     1  UNL1        0.2271
     21 O          59.9556   89.3111    7.7362 O.2     1  UNL1       -0.2748
     22 N          61.4342   89.2049    9.8699 N.am    1  UNL1       -0.2760
     23 C          61.9516   88.4452   11.0552 C.3     1  UNL1        0.1148
     24 C          62.9127   89.0987   12.0035 C.3     1  UNL1        0.1123
     25 N          63.3563   90.5119   11.7665 N.pl3   1  UNL1       -0.3040
     26 C          62.8388   91.2716   10.5811 C.3     1  UNL1        0.1123
     27 C          61.8777   90.6181    9.6328 C.3     1  UNL1        0.1148
     28 C          64.3173   91.1654   12.7148 C.ar    1  UNL1        0.0503
     29 C          64.5224   90.5946   14.0867 C.ar    1  UNL1        0.0170
     30 C          65.4835   91.2481   15.0350 C.ar    1  UNL1        0.0332
     31 C          66.2395   92.4724   14.6114 C.ar    1  UNL1        0.1675
     32 F          67.2005   93.1260   15.5597 F       1  UNL1       -0.2018
     33 C          66.0344   93.0432   13.2396 C.ar    1  UNL1        0.1686
     34 F          66.7904   94.2676   12.8160 F       1  UNL1       -0.2018
     35 C          65.0733   92.3898   12.2912 C.ar    1  UNL1        0.0465
@<TRIPOS>BOND
     1     2     3    1
     2     3     1    1
     3     1    19    1
     4    19    20    1
     5    20    21    2
     6    20    22   am
     7    22    23    1
     8    23    24    1
     9    24    25    1
    10    25    28    1
    11    28    29   ar
    12    29    30   ar
    13    30    31   ar
    14    31    32    1
    15    31    33   ar
    16    33    34    1
    17    33    35   ar
    18    25    26    1
    19    26    27    1
    20     3     4    1
    21     4     5    1
    22     5     6    1
    23     6     7    1
    24     7     8   ar
    25     8     9   ar
    26     9    10   ar
    27    10    11   ar
    28    11    12   ar
    29    12    13    1
    30    13    14   ar
    31    14    15   ar
    32    15    16   ar
    33    16    17   ar
    34    17    18   ar
    35    27    22    1
    36    18     6    1
    37    35    28   ar
    38    12     7   ar
    39    18    13   ar
@<TRIPOS>MOLECULE
*****
 35 39 0 0 0
SMALL
GASTEIGER

@<TRIPOS>ATOM
      1 C          61.4784   88.4811    9.3260 C.3     1  UNL1        0.0818
      2 C          60.1028   86.4934    8.3739 C.3     1  UNL1        0.0896
      3 N          60.9539   87.0822    9.4596 N.3     1  UNL1       -0.2710
      4 C          61.2804   86.2720   10.6791 C.3     1  UNL1        0.0728
      5 C          62.3813   85.2542   10.6307 C.3     1  UNL1        0.0261
      6 C          62.8913   84.6401   11.9006 C.3     1  UNL1        0.0459
      7 C          62.9149   83.1757   12.2244 C.ar    1  UNL1       -0.0184
      8 C          62.4749   81.9692   11.4493 C.ar    1  UNL1       -0.0040
      9 C          62.6254   80.6002   12.0434 C.ar    1  UNL1       -0.0003
     10 C          63.2159   80.4376   13.4127 C.ar    1  UNL1       -0.0000
     11 C          63.6559   81.6441   14.1878 C.ar    1  UNL1       -0.0003
     12 C          63.5054   83.0131   13.5936 C.ar    1  UNL1       -0.0040
     13 C          63.8468   84.3771   14.1161 C.ar    1  UNL1       -0.0040
     14 C          64.4543   84.8334   15.4094 C.ar    1  UNL1       -0.0003
     15 C          64.6823   86.2952   15.6565 C.ar    1  UNL1       -0.0000
     16 C          64.3028   87.3008   14.6101 C.ar    1  UNL1       -0.0003
     17 C          63.6953   86.8445   13.3168 C.ar    1  UNL1       -0.0040
     18 C          63.4673   85.3827   13.0698 C.ar    1  UNL1       -0.0184
     19 C          60.8847   89.5864   10.1480 C.3     1  UNL1        0.1026
     20 C          61.0044   89.5569   11.6429 C.2     1  UNL1        0.2271
     21 O          59.8991   88.9736   12.4724 O.2     1  UNL1       -0.2748
     22 N          62.2295   90.1106   12.3082 N.am    1  UNL1       -0.2760
     23 C          63.3347   90.6938   11.4787 C.3     1  UNL1        0.1148
     24 C          64.5598   91.2475   12.1441 C.3     1  UNL1        0.1123
     25 N          64.6795   91.2179   13.6390 N.pl3   1  UNL1       -0.3040
     26 C          63.5743   90.6347   14.4686 C.3     1  UNL1        0.1123
     27 C          62.3492   90.0810   13.8032 C.3     1  UNL1        0.1148
     28 C          65.9045   91.7716   14.3044 C.ar    1  UNL1        0.0503
     29 C          65.8027   92.3919   15.6664 C.ar    1  UNL1        0.0170
     30 C          67.0278   92.9456   16.3318 C.ar    1  UNL1        0.0332
     31 C          68.3546   92.8790   15.6353 C.ar    1  UNL1        0.1675
     32 F          69.5796   93.4327   16.3007 F       1  UNL1       -0.2018
     33 C          68.4563   92.2587   14.2734 C.ar    1  UNL1        0.1686
     34 F          69.7831   92.1921   13.5768 F       1  UNL1       -0.2018
     35 C          67.2313   91.7050   13.6079 C.ar    1  UNL1        0.0465
@<TRIPOS>BOND
     1     2     3    1
     2     3     1    1
     3     1    19    1
     4    19    20    1
     5    20    21    2
     6    20    22   am
     7    22    23    1
     8    23    24    1
     9    24    25    1
    10    25    28    1
    11    28    29   ar
    12    29    30   ar
    13    30    31   ar
    14    31    32    1
    15    31    33   ar
    16    33    34    1
    17    33    35   ar
    18    25    26    1
    19    26    27    1
    20     3     4    1
    21     4     5    1
    22     5     6    1
    23     6     7    1
    24     7     8   ar
    25     8     9   ar
    26     9    10   ar
    27    10    11   ar
    28    11    12   ar
    29    12    13    1
    30    13    14   ar
    31    14    15   ar
    32    15    16   ar
    33    16    17   ar
    34    17    18   ar
    35    27    22    1
    36    18     6    1
    37    35    28   ar
    38    12     7   ar
    39    18    13   ar
@<TRIPOS>MOLECULE
*****
 35 39 0 0 0
SMALL
GASTEIGER

@<TRIPOS>ATOM
      1 C          60.1949   87.4956    8.6502 C.3     1  UNL1        0.0818
      2 C          61.5838   85.5467    7.6387 C.3     1  UNL1        0.0896
      3 N          61.0732   86.2937    8.8350 N.3     1  UNL1       -0.2710
      4 C          61.4408   85.8388   10.2163 C.3     1  UNL1        0.0728
      5 C          62.7040   85.0607   10.4383 C.3     1  UNL1        0.0261
      6 C          63.0212   84.5184   11.8004 C.3     1  UNL1        0.0459
      7 C          63.4590   85.3218   12.9891 C.ar    1  UNL1       -0.0184
      8 C          63.6968   86.7910   13.1751 C.ar    1  UNL1       -0.0040
      9 C          64.1404   87.3160   14.5084 C.ar    1  UNL1       -0.0003
     10 C          64.3461   86.3718   15.6556 C.ar    1  UNL1       -0.0000
     11 C          64.1083   84.9025   15.4696 C.ar    1  UNL1       -0.0003
     12 C          63.6647   84.3775   14.1363 C.ar    1  UNL1       -0.0040
     13 C          63.3541   82.9907   13.6566 C.ar    1  UNL1       -0.0040
     14 C          63.3821   81.6597   14.3478 C.ar    1  UNL1       -0.0003
     15 C          63.0123   80.4159   13.5954 C.ar    1  UNL1       -0.0000
     16 C          62.6146   80.5030   12.1517 C.ar    1  UNL1       -0.0003
     17 C          62.5867   81.8339   11.4605 C.ar    1  UNL1       -0.0040
     18 C          62.9564   83.0777   12.2129 C.ar    1  UNL1       -0.0184
     19 C          60.5545   88.7954    9.3068 C.3     1  UNL1        0.1026
     20 C          60.6305   88.8844   10.8023 C.2     1  UNL1        0.2271
     21 O          59.5991   88.1979   11.6478 O.2     1  UNL1       -0.2748
     22 N          61.7379   89.6600   11.4521 N.am    1  UNL1       -0.2760
     23 C          62.7692   90.3465   10.6064 C.3     1  UNL1        0.1148
     24 C          63.8766   91.1220   11.2563 C.3     1  UNL1        0.1123
     25 N          63.9526   91.2110   12.7517 N.pl3   1  UNL1       -0.3040
     26 C          62.9213   90.5245   13.5973 C.3     1  UNL1        0.1123
     27 C          61.8139   89.7490   12.9475 C.3     1  UNL1        0.1148
     28 C          65.0599   91.9865   13.4016 C.ar    1  UNL1        0.0503
     29 C          65.7454   93.0887   12.6495 C.ar    1  UNL1        0.0170
     30 C          66.8527   93.8642   13.2994 C.ar    1  UNL1        0.0332
     31 C          67.2747   93.5376   14.7012 C.ar    1  UNL1        0.1675
     32 F          68.3821   94.3131   15.3511 F       1  UNL1       -0.2018
     33 C          66.5893   92.4355   15.4533 C.ar    1  UNL1        0.1686
     34 F          67.0113   92.1089   16.8551 F       1  UNL1       -0.2018
     35 C          65.4819   91.6599   14.8035 C.ar    1  UNL1        0.0465
@<TRIPOS>BOND
     1     2     3    1
     2     3     1    1
     3     1    19    1
     4    19    20    1
     5    20    21    2
     6    20    22   am
     7    22    23    1
     8    23    24    1
     9    24    25    1
    10    25    28    1
    11    28    29   ar
    12    29    30   ar
    13    30    31   ar
    14    31    32    1
    15    31    33   ar
    16    33    34    1
    17    33    35   ar
    18    25    26    1
    19    26    27    1
    20     3     4    1
    21     4     5    1
    22     5     6    1
    23     6     7    1
    24     7     8   ar
    25     8     9   ar
    26     9    10   ar
    27    10    11   ar
    28    11    12   ar
    29    12    13    1
    30    13    14   ar
    31    14    15   ar
    32    15    16   ar
    33    16    17   ar
    34    17    18   ar
    35    27    22    1
    36    18     6    1
    37    35    28   ar
    38    12     7   ar
    39    18    13   ar
@<TRIPOS>MOLECULE
*****
 35 39 0 0 0
SMALL
GASTEIGER

@<TRIPOS>ATOM
      1 C          63.9290   85.6934   16.0269 C.3     1  UNL1        0.0818
      2 C          62.8274   87.6273   17.3673 C.3     1  UNL1        0.0896
      3 N          63.6392   87.1552   16.1977 N.3     1  UNL1       -0.2710
      4 C          64.1611   88.1450   15.1987 C.3     1  UNL1        0.0728
      5 C          63.7235   89.5784   15.2641 C.3     1  UNL1        0.0261
      6 C          64.3634   90.5994   14.3707 C.3     1  UNL1        0.0459
      7 C          65.4451   91.5612   14.7643 C.ar    1  UNL1       -0.0184
      8 C          66.1650   91.7862   16.0608 C.ar    1  UNL1       -0.0040
      9 C          67.2241   92.8440   16.1567 C.ar    1  UNL1       -0.0003
     10 C          67.5632   93.6769   14.9562 C.ar    1  UNL1       -0.0000
     11 C          66.8432   93.4519   13.6597 C.ar    1  UNL1       -0.0003
     12 C          65.7841   92.3941   13.5637 C.ar    1  UNL1       -0.0040
     13 C          64.9120   91.9470   12.4282 C.ar    1  UNL1       -0.0040
     14 C          64.8040   92.4066   11.0044 C.ar    1  UNL1       -0.0003
     15 C          63.8178   91.7570   10.0794 C.ar    1  UNL1       -0.0000
     16 C          62.9398   90.6479   10.5781 C.ar    1  UNL1       -0.0003
     17 C          63.0478   90.1882   12.0018 C.ar    1  UNL1       -0.0040
     18 C          64.0339   90.8378   12.9269 C.ar    1  UNL1       -0.0184
     19 C          64.7958   85.2280   14.8947 C.3     1  UNL1        0.1026
     20 C          64.2123   84.3822   13.8019 C.2     1  UNL1        0.2271
     21 O          64.4412   82.8998   13.7976 O.2     1  UNL1       -0.2748
     22 N          63.3997   85.0189   12.7136 N.am    1  UNL1       -0.2760
     23 C          63.1709   86.5013   12.7180 C.3     1  UNL1        0.1148
     24 C          62.3583   87.1379   11.6296 C.3     1  UNL1        0.1123
     25 N          61.7748   86.2921   10.5369 N.pl3   1  UNL1       -0.3040
     26 C          62.0037   84.8097   10.5325 C.3     1  UNL1        0.1123
     27 C          62.8162   84.1731   11.6209 C.3     1  UNL1        0.1148
     28 C          60.9623   86.9287    9.4485 C.ar    1  UNL1        0.0503
     29 C          60.3879   86.0843    8.3497 C.ar    1  UNL1        0.0170
     30 C          59.5753   86.7209    7.2614 C.ar    1  UNL1        0.0332
     31 C          59.3372   88.2018    7.2717 C.ar    1  UNL1        0.1675
     32 F          58.5247   88.8384    6.1833 F       1  UNL1       -0.2018
     33 C          59.9116   89.0461    8.3704 C.ar    1  UNL1        0.1686
     34 F          59.6734   90.5271    8.3808 F       1  UNL1       -0.2018
     35 C          60.7241   88.4096    9.4589 C.ar    1  UNL1        0.0465
@<TRIPOS>BOND
     1     2     3    1
     2     3     1    1
     3     1    19    1
     4    19    20    1
     5    20    21    2
     6    20    22   am
     7    22    23    1
     8    23    24    1
     9    24    25    1
    10    25    28    1
    11    28    29   ar
    12    29    30   ar
    13    30    31   ar
    14    31    32    1
    15    31    33   ar
    16    33    34    1
    17    33    35   ar
    18    25    26    1
    19    26    27    1
    20     3     4    1
    21     4     5    1
    22     5     6    1
    23     6     7    1
    24     7     8   ar
    25     8     9   ar
    26     9    10   ar
    27    10    11   ar
    28    11    12   ar
    29    12    13    1
    30    13    14   ar
    31    14    15   ar
    32    15    16   ar
    33    16    17   ar
    34    17    18   ar
    35    27    22    1
    36    18     6    1
    37    35    28   ar
    38    12     7   ar
    39    18    13   ar
@<TRIPOS>MOLECULE
*****
 35 39 0 0 0
SMALL
GASTEIGER

@<TRIPOS>ATOM
      1 C          63.9114   85.6786   16.0284 C.3     1  UNL1        0.0818
      2 C          62.8400   87.6125   17.3930 C.3     1  UNL1        0.0896
      3 N          63.6384   87.1419   16.2136 N.3     1  UNL1       -0.2710
      4 C          64.1637   88.1346   15.2193 C.3     1  UNL1        0.0728
      5 C          63.7396   89.5713   15.2981 C.3     1  UNL1        0.0261
      6 C          64.3747   90.5912   14.4001 C.3     1  UNL1        0.0459
      7 C          64.0383   90.8272   12.9575 C.ar    1  UNL1       -0.0184
      8 C          63.0481   90.1757   12.0382 C.ar    1  UNL1       -0.0040
      9 C          62.9332   90.6330   10.6143 C.ar    1  UNL1       -0.0003
     10 C          63.8083   91.7418   10.1097 C.ar    1  UNL1       -0.0000
     11 C          64.7985   92.3932   11.0289 C.ar    1  UNL1       -0.0003
     12 C          64.9135   91.9359   12.4528 C.ar    1  UNL1       -0.0040
     13 C          65.7908   92.3852   13.5836 C.ar    1  UNL1       -0.0040
     14 C          66.8498   93.4437   13.6728 C.ar    1  UNL1       -0.0003
     15 C          67.5759   93.6711   14.9655 C.ar    1  UNL1       -0.0000
     16 C          67.2430   92.8400   16.1690 C.ar    1  UNL1       -0.0003
     17 C          66.1839   91.7815   16.0798 C.ar    1  UNL1       -0.0040
     18 C          65.4578   91.5541   14.7871 C.ar    1  UNL1       -0.0184
     19 C          64.7739   85.2145   14.8922 C.3     1  UNL1        0.1026
     20 C          64.1860   84.3702   13.8007 C.2     1  UNL1        0.2271
     21 O          64.4072   82.8866   13.7985 O.2     1  UNL1       -0.2748
     22 N          63.3770   85.0096   12.7113 N.am    1  UNL1       -0.2760
     23 C          63.1558   86.4931   12.7135 C.3     1  UNL1        0.1148
     24 C          62.3468   87.1324   11.6241 C.3     1  UNL1        0.1123
     25 N          61.7590   86.2881   10.5325 N.pl3   1  UNL1       -0.3040
     26 C          61.9801   84.8045   10.5303 C.3     1  UNL1        0.1123
     27 C          62.7891   84.1653   11.6197 C.3     1  UNL1        0.1148
     28 C          60.9499   86.9274    9.4431 C.ar    1  UNL1        0.0503
     29 C          60.3749   86.0850    8.3431 C.ar    1  UNL1        0.0170
     30 C          59.5659   86.7242    7.2537 C.ar    1  UNL1        0.0332
     31 C          59.3318   88.2058    7.2642 C.ar    1  UNL1        0.1675
     32 F          58.5228   88.8451    6.1748 F       1  UNL1       -0.2018
     33 C          59.9068   89.0481    8.3642 C.ar    1  UNL1        0.1686
     34 F          59.6727   90.5297    8.3747 F       1  UNL1       -0.2018
     35 C          60.7159   88.4089    9.4536 C.ar    1  UNL1        0.0465
@<TRIPOS>BOND
     1     2     3    1
     2     3     1    1
     3     1    19    1
     4    19    20    1
     5    20    21    2
     6    20    22   am
     7    22    23    1
     8    23    24    1
     9    24    25    1
    10    25    28    1
    11    28    29   ar
    12    29    30   ar
    13    30    31   ar
    14    31    32    1
    15    31    33   ar
    16    33    34    1
    17    33    35   ar
    18    25    26    1
    19    26    27    1
    20     3     4    1
    21     4     5    1
    22     5     6    1
    23     6     7    1
    24     7     8   ar
    25     8     9   ar
    26     9    10   ar
    27    10    11   ar
    28    11    12   ar
    29    12    13    1
    30    13    14   ar
    31    14    15   ar
    32    15    16   ar
    33    16    17   ar
    34    17    18   ar
    35    27    22    1
    36    18     6    1
    37    35    28   ar
    38    12     7   ar
    39    18    13   ar
@<TRIPOS>MOLECULE
*****
 35 39 0 0 0
SMALL
GASTEIGER

@<TRIPOS>ATOM
      1 C          58.9683   88.8452    7.1307 C.3     1  UNL1        0.0818
      2 C          59.6731   86.4552    7.8665 C.3     1  UNL1        0.0896
      3 N          59.5947   87.9281    8.1390 N.3     1  UNL1       -0.2710
      4 C          60.1427   88.4840    9.4199 C.3     1  UNL1        0.0728
      5 C          61.6202   88.6899    9.5768 C.3     1  UNL1        0.0261
      6 C          62.3099   88.2475   10.8332 C.3     1  UNL1        0.0459
      7 C          62.9476   89.1451   11.8518 C.ar    1  UNL1       -0.0184
      8 C          63.0851   90.6368   11.9292 C.ar    1  UNL1       -0.0040
      9 C          63.7898   91.2655   13.0946 C.ar    1  UNL1       -0.0003
     10 C          64.3570   90.4026   14.1825 C.ar    1  UNL1       -0.0000
     11 C          64.2195   88.9109   14.1051 C.ar    1  UNL1       -0.0003
     12 C          63.5148   88.2822   12.9398 C.ar    1  UNL1       -0.0040
     13 C          63.2276   86.8513   12.5936 C.ar    1  UNL1       -0.0040
     14 C          63.5480   85.5650   13.2956 C.ar    1  UNL1       -0.0003
     15 C          63.1237   84.2573   12.6958 C.ar    1  UNL1       -0.0000
     16 C          62.3790   84.2358   11.3938 C.ar    1  UNL1       -0.0003
     17 C          62.0586   85.5220   10.6918 C.ar    1  UNL1       -0.0040
     18 C          62.4830   86.8298   11.2916 C.ar    1  UNL1       -0.0184
     19 C          59.7735   89.9569    6.5259 C.3     1  UNL1        0.1026
     20 C          59.1416   90.8859    5.5321 C.2     1  UNL1        0.2271
     21 O          57.6728   91.1802    5.6093 O.2     1  UNL1       -0.2748
     22 N          59.9786   91.5204    4.4611 N.am    1  UNL1       -0.2760
     23 C          61.4473   91.2260    4.3840 C.3     1  UNL1        0.1148
     24 C          62.2842   91.8606    3.3131 C.3     1  UNL1        0.1123
     25 N          61.6523   92.7896    2.3193 N.pl3   1  UNL1       -0.3040
     26 C          60.1835   93.0841    2.3964 C.3     1  UNL1        0.1123
     27 C          59.3467   92.4495    3.4674 C.3     1  UNL1        0.1148
     28 C          62.4891   93.4243    1.2484 C.ar    1  UNL1        0.0503
     29 C          63.9831   93.4509    1.3811 C.ar    1  UNL1        0.0170
     30 C          64.8200   94.0855    0.3101 C.ar    1  UNL1        0.0332
     31 C          64.1630   94.6935   -0.8935 C.ar    1  UNL1        0.1675
     32 F          64.9998   95.3281   -1.9645 F       1  UNL1       -0.2018
     33 C          62.6691   94.6668   -1.0262 C.ar    1  UNL1        0.1686
     34 F          62.0121   95.2747   -2.2298 F       1  UNL1       -0.2018
     35 C          61.8321   94.0322    0.0447 C.ar    1  UNL1        0.0465
@<TRIPOS>BOND
     1     2     3    1
     2     3     1    1
     3     1    19    1
     4    19    20    1
     5    20    21    2
     6    20    22   am
     7    22    23    1
     8    23    24    1
     9    24    25    1
    10    25    28    1
    11    28    29   ar
    12    29    30   ar
    13    30    31   ar
    14    31    32    1
    15    31    33   ar
    16    33    34    1
    17    33    35   ar
    18    25    26    1
    19    26    27    1
    20     3     4    1
    21     4     5    1
    22     5     6    1
    23     6     7    1
    24     7     8   ar
    25     8     9   ar
    26     9    10   ar
    27    10    11   ar
    28    11    12   ar
    29    12    13    1
    30    13    14   ar
    31    14    15   ar
    32    15    16   ar
    33    16    17   ar
    34    17    18   ar
    35    27    22    1
    36    18     6    1
    37    35    28   ar
    38    12     7   ar
    39    18    13   ar
@<TRIPOS>MOLECULE
*****
 35 39 0 0 0
SMALL
GASTEIGER

@<TRIPOS>ATOM
      1 C          59.3253   89.5645    7.4241 C.3     1  UNL1        0.0818
      2 C          59.0912   87.0094    7.8325 C.3     1  UNL1        0.0896
      3 N          59.7210   88.3272    8.1741 N.3     1  UNL1       -0.2710
      4 C          60.7466   88.4076    9.2658 C.3     1  UNL1        0.0728
      5 C          61.5338   87.1888    9.6466 C.3     1  UNL1        0.0261
      6 C          62.2857   87.1568   10.9442 C.3     1  UNL1        0.0459
      7 C          62.6488   85.9271   11.7226 C.ar    1  UNL1       -0.0184
      8 C          62.3972   84.4698   11.4719 C.ar    1  UNL1       -0.0040
      9 C          62.8907   83.4445   12.4492 C.ar    1  UNL1       -0.0003
     10 C          63.6359   83.8766   13.6773 C.ar    1  UNL1       -0.0000
     11 C          63.8875   85.3339   13.9280 C.ar    1  UNL1       -0.0003
     12 C          63.3940   86.3591   12.9507 C.ar    1  UNL1       -0.0040
     13 C          63.4914   87.8559   12.9311 C.ar    1  UNL1       -0.0040
     14 C          64.1153   88.8335   13.8824 C.ar    1  UNL1       -0.0003
     15 C          64.0543   90.3042   13.5935 C.ar    1  UNL1       -0.0000
     16 C          63.3693   90.7972   12.3534 C.ar    1  UNL1       -0.0003
     17 C          62.7454   89.8195   11.4022 C.ar    1  UNL1       -0.0040
     18 C          62.8064   88.3489   11.6911 C.ar    1  UNL1       -0.0184
     19 C          59.7640   89.7520    6.0020 C.3     1  UNL1        0.1026
     20 C          59.2571   90.9196    5.2085 C.2     1  UNL1        0.2271
     21 O          57.8393   91.3803    5.3745 O.2     1  UNL1       -0.2748
     22 N          60.1680   91.6264    4.2490 N.am    1  UNL1       -0.2760
     23 C          61.5858   91.1656    4.0830 C.3     1  UNL1        0.1148
     24 C          62.4966   91.8725    3.1235 C.3     1  UNL1        0.1123
     25 N          61.9897   93.0401    2.3300 N.pl3   1  UNL1       -0.3040
     26 C          60.5719   93.5009    2.4959 C.3     1  UNL1        0.1123
     27 C          59.6611   92.7940    3.4554 C.3     1  UNL1        0.1148
     28 C          62.9005   93.7470    1.3704 C.ar    1  UNL1        0.0503
     29 C          63.9609   94.6737    1.8872 C.ar    1  UNL1        0.0170
     30 C          64.8717   95.3806    0.9277 C.ar    1  UNL1        0.0332
     31 C          64.7223   95.1608   -0.5486 C.ar    1  UNL1        0.1675
     32 F          65.6331   95.8677   -1.5081 F       1  UNL1       -0.2018
     33 C          63.6620   94.2341   -1.0653 C.ar    1  UNL1        0.1686
     34 F          63.5125   94.0143   -2.5416 F       1  UNL1       -0.2018
     35 C          62.7510   93.5272   -0.1058 C.ar    1  UNL1        0.0465
@<TRIPOS>BOND
     1     2     3    1
     2     3     1    1
     3     1    19    1
     4    19    20    1
     5    20    21    2
     6    20    22   am
     7    22    23    1
     8    23    24    1
     9    24    25    1
    10    25    28    1
    11    28    29   ar
    12    29    30   ar
    13    30    31   ar
    14    31    32    1
    15    31    33   ar
    16    33    34    1
    17    33    35   ar
    18    25    26    1
    19    26    27    1
    20     3     4    1
    21     4     5    1
    22     5     6    1
    23     6     7    1
    24     7     8   ar
    25     8     9   ar
    26     9    10   ar
    27    10    11   ar
    28    11    12   ar
    29    12    13    1
    30    13    14   ar
    31    14    15   ar
    32    15    16   ar
    33    16    17   ar
    34    17    18   ar
    35    27    22    1
    36    18     6    1
    37    35    28   ar
    38    12     7   ar
    39    18    13   ar
@<TRIPOS>MOLECULE
*****
 35 39 0 0 0
SMALL
GASTEIGER

@<TRIPOS>ATOM
      1 C          63.7145   84.9522   15.1623 C.3     1  UNL1        0.0818
      2 C          62.1662   82.9716   14.5066 C.3     1  UNL1        0.0896
      3 N          62.9864   84.1645   14.1138 N.3     1  UNL1       -0.2710
      4 C          63.0786   84.5696   12.6725 C.3     1  UNL1        0.0728
      5 C          63.1463   86.0223   12.3046 C.3     1  UNL1        0.0261
      6 C          62.4094   86.5258   11.0990 C.3     1  UNL1        0.0459
      7 C          61.6046   87.7892   11.0216 C.ar    1  UNL1       -0.0184
      8 C          61.3083   88.8542   12.0354 C.ar    1  UNL1       -0.0040
      9 C          60.4533   90.0285   11.6616 C.ar    1  UNL1       -0.0003
     10 C          59.8944   90.1378   10.2738 C.ar    1  UNL1       -0.0000
     11 C          60.1907   89.0728    9.2600 C.ar    1  UNL1       -0.0003
     12 C          61.0457   87.8985    9.6339 C.ar    1  UNL1       -0.0040
     13 C          61.5052   86.7026    8.8536 C.ar    1  UNL1       -0.0040
     14 C          61.2651   86.2766    7.4356 C.ar    1  UNL1       -0.0003
     15 C          61.8678   85.0022    6.9231 C.ar    1  UNL1       -0.0000
     16 C          62.7106   84.1538    7.8285 C.ar    1  UNL1       -0.0003
     17 C          62.9507   84.5798    9.2466 C.ar    1  UNL1       -0.0040
     18 C          62.3480   85.8542    9.7591 C.ar    1  UNL1       -0.0184
     19 C          63.1025   85.1406   16.5188 C.3     1  UNL1        0.1026
     20 C          62.8479   86.5235   17.0412 C.2     1  UNL1        0.2271
     21 O          62.0539   86.7155   18.2992 O.2     1  UNL1       -0.2748
     22 N          63.3873   87.7142   16.3054 N.am    1  UNL1       -0.2760
     23 C          64.1813   87.5220   15.0474 C.3     1  UNL1        0.1148
     24 C          64.7206   88.7128   14.3118 C.3     1  UNL1        0.1123
     25 N          64.4660   90.0956   14.8342 N.pl3   1  UNL1       -0.3040
     26 C          63.6721   90.2878   16.0922 C.3     1  UNL1        0.1123
     27 C          63.1327   89.0970   16.8278 C.3     1  UNL1        0.1148
     28 C          65.0054   91.2864   14.0985 C.ar    1  UNL1        0.0503
     29 C          65.9178   92.2501   14.7980 C.ar    1  UNL1        0.0170
     30 C          66.4571   93.4408   14.0623 C.ar    1  UNL1        0.0332
     31 C          66.0842   93.6680   12.6273 C.ar    1  UNL1        0.1675
     32 F          66.6236   94.8588   11.8917 F       1  UNL1       -0.2018
     33 C          65.1719   92.7044   11.9279 C.ar    1  UNL1        0.1686
     34 F          64.7990   92.9316   10.4929 F       1  UNL1       -0.2018
     35 C          64.6325   91.5136   12.6635 C.ar    1  UNL1        0.0465
@<TRIPOS>BOND
     1     2     3    1
     2     3     1    1
     3     1    19    1
     4    19    20    1
     5    20    21    2
     6    20    22   am
     7    22    23    1
     8    23    24    1
     9    24    25    1
    10    25    28    1
    11    28    29   ar
    12    29    30   ar
    13    30    31   ar
    14    31    32    1
    15    31    33   ar
    16    33    34    1
    17    33    35   ar
    18    25    26    1
    19    26    27    1
    20     3     4    1
    21     4     5    1
    22     5     6    1
    23     6     7    1
    24     7     8   ar
    25     8     9   ar
    26     9    10   ar
    27    10    11   ar
    28    11    12   ar
    29    12    13    1
    30    13    14   ar
    31    14    15   ar
    32    15    16   ar
    33    16    17   ar
    34    17    18   ar
    35    27    22    1
    36    18     6    1
    37    35    28   ar
    38    12     7   ar
    39    18    13   ar
