@<TRIPOS>MOLECULE
*****
 36 40 0 0 0
SMALL
GASTEIGER

@<TRIPOS>ATOM
      1 C          62.9885   84.1994   14.3356 C.ar    1  UNL1        0.1640
      2 N          63.1465   85.6204   13.8821 N.ar    1  UNL1       -0.2222
      3 C          63.1433   86.4982   15.0985 C.ar    1  UNL1        0.1309
      4 C          63.2653   87.9839   15.2643 C.ar    1  UNL1        0.0810
      5 C          63.2274   88.5912   16.6354 C.ar    1  UNL1        0.0895
      6 CL         63.3495   90.0770   16.8012 Cl      1  UNL1       -0.0793
      7 C          63.0675   87.7127   17.8406 C.ar    1  UNL1        0.0863
      8 N          62.9454   86.2269   17.6748 N.ar    1  UNL1       -0.3354
      9 C          62.9833   85.6196   16.3037 C.ar    1  UNL1        0.1613
     10 N          62.8877   84.1989   15.8322 N.ar    1  UNL1       -0.2081
     11 H          62.8405   85.6503   18.4658 H       1  UNL1        0.1675
     12 C          62.8427   80.5741   11.6736 C.ar    1  UNL1        0.0479
     13 C          63.2658   81.8995   11.1131 C.ar    1  UNL1        0.0146
     14 C          63.3144   83.1079   12.0005 C.ar    1  UNL1        0.0043
     15 C          62.9399   82.9909   13.4483 C.ar    1  UNL1        0.0359
     16 C          62.5168   81.6655   14.0088 C.ar    1  UNL1        0.0043
     17 C          62.4682   80.4570   13.1214 C.ar    1  UNL1        0.0146
     18 C          62.8914   79.5238    9.2979 C.3     1  UNL1        0.1122
     19 N          62.7941   79.3656   10.7863 N.pl3   1  UNL1       -0.3041
     20 C          62.6482   77.9991   11.3874 C.3     1  UNL1        0.1122
     21 N          63.4253   88.8626   14.0590 N.pl3   1  UNL1       -0.3027
     22 C          62.8639   88.4312   12.7366 C.3     1  UNL1        0.1082
     23 C          63.0239   89.3099   11.5315 C.3     1  UNL1        0.0942
     24 N          63.7452   90.6198   11.6488 N.3     1  UNL1       -0.2620
     25 C          64.3065   91.0512   12.9712 C.3     1  UNL1        0.0942
     26 C          64.1466   90.1725   14.1764 C.3     1  UNL1        0.1082
     27 C          63.9052   91.4985   10.4437 C.3     1  UNL1        0.1589
     28 C          64.9688   92.5561   10.4225 C.2     1  UNL1        0.2439
     29 O          66.4114   92.1721   10.5691 O.2     1  UNL1       -0.2732
     30 N          64.5897   93.9977   10.2547 N.am    1  UNL1       -0.2630
     31 H          63.6429   94.2498   10.1584 H       1  UNL1        0.1568
     32 C          65.6533   95.0552   10.2334 C.ar    1  UNL1        0.1656
     33 N          66.5342   95.3964    9.0683 N.ar    1  UNL1       -0.2224
     34 C          67.4481   96.5093    9.4883 C.ar    1  UNL1        0.1079
     35 C          67.1319   96.8559   10.9131 C.ar    1  UNL1        0.0588
     36 S          66.0226   95.9572   11.3736 S.2     1  UNL1       -0.0508
@<TRIPOS>BOND
     1    18    19    1
     2    19    20    1
     3    19    12    1
     4    12    13   ar
     5    13    14   ar
     6    14    15   ar
     7    15     1    1
     8     1     2   ar
     9     2     3   ar
    10     3     4   ar
    11     4    21    1
    12    21    22    1
    13    22    23    1
    14    23    24    1
    15    24    27    1
    16    27    28    1
    17    28    29    2
    18    28    30   am
    19    30    32    1
    20    32    33   ar
    21    33    34   ar
    22    34    35   ar
    23    35    36   ar
    24    24    25    1
    25    25    26    1
    26     4     5   ar
    27     5     6    1
    28     5     7   ar
    29     7     8   ar
    30     8     9   ar
    31     9    10   ar
    32    15    16   ar
    33    16    17   ar
    34    17    12   ar
    35    10     1   ar
    36     9     3    1
    37    26    21    1
    38    36    32   ar
    39    30    31    1
    40     8    11    1
@<TRIPOS>MOLECULE
*****
 36 40 0 0 0
SMALL
GASTEIGER

@<TRIPOS>ATOM
      1 C          60.8971   87.6443    9.5473 C.ar    1  UNL1        0.1640
      2 N          61.7900   88.2060   10.6136 N.ar    1  UNL1       -0.2222
      3 C          62.2837   87.0651   11.4531 C.ar    1  UNL1        0.1309
      4 C          63.1926   87.0161   12.6454 C.ar    1  UNL1        0.0810
      5 C          63.5135   85.7003   13.2901 C.ar    1  UNL1        0.0895
      6 CL         64.4225   85.6513   14.4825 Cl      1  UNL1       -0.0793
      7 C          62.9257   84.4336   12.7427 C.ar    1  UNL1        0.0863
      8 N          62.0168   84.4826   11.5504 N.ar    1  UNL1       -0.3354
      9 C          61.6958   85.7984   10.9056 C.ar    1  UNL1        0.1613
     10 N          60.8388   86.1563    9.7277 N.ar    1  UNL1       -0.2081
     11 H          61.6309   83.6512   11.1911 H       1  UNL1        0.1675
     12 C          58.7668   90.0082    6.3654 C.ar    1  UNL1        0.0479
     13 C          59.8584   90.6483    7.1708 C.ar    1  UNL1        0.0146
     14 C          60.5684   89.8603    8.2315 C.ar    1  UNL1        0.0043
     15 C          60.1870   88.4322    8.4866 C.ar    1  UNL1        0.0359
     16 C          59.0954   87.7921    7.6812 C.ar    1  UNL1        0.0043
     17 C          58.3854   88.5801    6.6205 C.ar    1  UNL1        0.0146
     18 C          56.5647   90.7084    5.1779 C.3     1  UNL1        0.1122
     19 N          58.0567   90.7961    5.3047 N.pl3   1  UNL1       -0.3041
     20 C          58.8387   91.6717    4.3710 C.3     1  UNL1        0.1122
     21 N          63.7805   88.2829   13.1929 N.pl3   1  UNL1       -0.3027
     22 C          64.5150   88.2648   14.5007 C.3     1  UNL1        0.1082
     23 C          65.1029   89.5316   15.0481 C.3     1  UNL1        0.0942
     24 N          64.9563   90.8163   14.2879 N.3     1  UNL1       -0.2620
     25 C          64.2218   90.8343   12.9801 C.3     1  UNL1        0.0942
     26 C          63.6339   89.5676   12.4327 C.3     1  UNL1        0.1082
     27 C          65.5442   92.0830   14.8353 C.3     1  UNL1        0.1589
     28 C          66.1352   93.0995   13.9038 C.2     1  UNL1        0.2439
     29 O          67.3552   93.8709   14.3118 O.2     1  UNL1       -0.2732
     30 N          65.5062   93.3444   12.5642 N.am    1  UNL1       -0.2630
     31 H          64.7055   92.8381   12.2964 H       1  UNL1        0.1568
     32 C          66.0973   94.3608   11.6328 C.ar    1  UNL1        0.1656
     33 N          66.0771   95.8484   11.8236 N.ar    1  UNL1       -0.2224
     34 C          66.7796   96.4752   10.6558 C.ar    1  UNL1        0.1079
     35 C          67.2341   95.3747    9.7433 C.ar    1  UNL1        0.0588
     36 S          66.8124   94.0679   10.3472 S.2     1  UNL1       -0.0508
@<TRIPOS>BOND
     1    18    19    1
     2    19    20    1
     3    19    12    1
     4    12    13   ar
     5    13    14   ar
     6    14    15   ar
     7    15     1    1
     8     1     2   ar
     9     2     3   ar
    10     3     4   ar
    11     4    21    1
    12    21    22    1
    13    22    23    1
    14    23    24    1
    15    24    27    1
    16    27    28    1
    17    28    29    2
    18    28    30   am
    19    30    32    1
    20    32    33   ar
    21    33    34   ar
    22    34    35   ar
    23    35    36   ar
    24    24    25    1
    25    25    26    1
    26     4     5   ar
    27     5     6    1
    28     5     7   ar
    29     7     8   ar
    30     8     9   ar
    31     9    10   ar
    32    15    16   ar
    33    16    17   ar
    34    17    12   ar
    35    10     1   ar
    36     9     3    1
    37    26    21    1
    38    36    32   ar
    39    30    31    1
    40     8    11    1
@<TRIPOS>MOLECULE
*****
 36 40 0 0 0
SMALL
GASTEIGER

@<TRIPOS>ATOM
      1 C          63.6131   90.4730   11.8609 C.ar    1  UNL1        0.1640
      2 N          63.4025   88.9973   11.6941 N.ar    1  UNL1       -0.2222
      3 C          62.2865   88.7966   10.7121 C.ar    1  UNL1        0.1309
      4 C          61.6447   87.5576   10.1618 C.ar    1  UNL1        0.0810
      5 C          60.5237   87.6703    9.1714 C.ar    1  UNL1        0.0895
      6 CL         59.8818   86.4312    8.6210 Cl      1  UNL1       -0.0793
      7 C          60.0447   89.0218    8.7314 C.ar    1  UNL1        0.0863
      8 N          60.6866   90.2608    9.2817 N.ar    1  UNL1       -0.3354
      9 C          61.8075   90.1482   10.2721 C.ar    1  UNL1        0.1613
     10 N          62.6274   91.1843   10.9821 N.ar    1  UNL1       -0.2081
     11 H          60.3721   91.1479    8.9929 H       1  UNL1        0.1675
     12 C          66.6664   92.4241   14.5295 C.ar    1  UNL1        0.0479
     13 C          66.3903   92.9890   13.1676 C.ar    1  UNL1        0.0146
     14 C          65.3725   92.3386   12.2782 C.ar    1  UNL1        0.0043
     15 C          64.6309   91.1234   12.7505 C.ar    1  UNL1        0.0359
     16 C          64.9070   90.5584   14.1123 C.ar    1  UNL1        0.0043
     17 C          65.9248   91.2089   15.0018 C.ar    1  UNL1        0.0146
     18 C          68.3906   92.2659   16.4664 C.3     1  UNL1        0.1122
     19 N          67.6842   93.0744   15.4190 N.pl3   1  UNL1       -0.3041
     20 C          67.9954   94.5333   15.2611 C.3     1  UNL1        0.1122
     21 N          62.1236   86.2059   10.6018 N.pl3   1  UNL1       -0.3027
     22 C          61.9686   85.7845   12.0330 C.3     1  UNL1        0.1082
     23 C          62.4476   84.4328   12.4729 C.3     1  UNL1        0.0942
     24 N          63.0816   83.5026   11.4816 N.3     1  UNL1       -0.2620
     25 C          63.2367   83.9239   10.0504 C.3     1  UNL1        0.0942
     26 C          62.7577   85.2756    9.6105 C.3     1  UNL1        0.1082
     27 C          63.5606   82.1509   11.9215 C.3     1  UNL1        0.1589
     28 C          62.5764   81.1267   12.4036 C.2     1  UNL1        0.2439
     29 O          62.6509   79.7174   11.8953 O.2     1  UNL1       -0.2732
     30 N          61.5176   81.5117   13.3939 N.am    1  UNL1       -0.2630
     31 H          61.4687   82.4367   13.7276 H       1  UNL1        0.1568
     32 C          60.5335   80.4875   13.8759 C.ar    1  UNL1        0.1656
     33 N          60.8100   79.0277   14.0822 N.ar    1  UNL1       -0.2224
     34 C          59.5475   78.3811   14.5700 C.ar    1  UNL1        0.1079
     35 C          58.4906   79.4413   14.6651 C.ar    1  UNL1        0.0588
     36 S          59.1000   80.7431   14.2361 S.2     1  UNL1       -0.0508
@<TRIPOS>BOND
     1    18    19    1
     2    19    20    1
     3    19    12    1
     4    12    13   ar
     5    13    14   ar
     6    14    15   ar
     7    15     1    1
     8     1     2   ar
     9     2     3   ar
    10     3     4   ar
    11     4    21    1
    12    21    22    1
    13    22    23    1
    14    23    24    1
    15    24    27    1
    16    27    28    1
    17    28    29    2
    18    28    30   am
    19    30    32    1
    20    32    33   ar
    21    33    34   ar
    22    34    35   ar
    23    35    36   ar
    24    24    25    1
    25    25    26    1
    26     4     5   ar
    27     5     6    1
    28     5     7   ar
    29     7     8   ar
    30     8     9   ar
    31     9    10   ar
    32    15    16   ar
    33    16    17   ar
    34    17    12   ar
    35    10     1   ar
    36     9     3    1
    37    26    21    1
    38    36    32   ar
    39    30    31    1
    40     8    11    1
@<TRIPOS>MOLECULE
*****
 36 40 0 0 0
SMALL
GASTEIGER

@<TRIPOS>ATOM
      1 C          64.6566   90.8900   14.2396 C.ar    1  UNL1        0.1640
      2 N          64.5087   89.4257   13.9499 N.ar    1  UNL1       -0.2222
      3 C          63.9590   88.7634   15.1783 C.ar    1  UNL1        0.1309
      4 C          63.6084   87.3359   15.4773 C.ar    1  UNL1        0.0810
      5 C          63.0659   86.9634   16.8253 C.ar    1  UNL1        0.0895
      6 CL         62.7153   85.5358   17.1243 Cl      1  UNL1       -0.0793
      7 C          62.8740   88.0183   17.8742 C.ar    1  UNL1        0.0863
      8 N          63.2246   89.4457   17.5752 N.ar    1  UNL1       -0.3354
      9 C          63.7671   89.8183   16.2273 C.ar    1  UNL1        0.1613
     10 N          64.1982   91.1326   15.6471 N.ar    1  UNL1       -0.2081
     11 H          63.0987   90.1381   18.2637 H       1  UNL1        0.1675
     12 C          66.2035   94.0078   11.3872 C.ar    1  UNL1        0.0479
     13 C          66.5964   94.0541   12.8340 C.ar    1  UNL1        0.0146
     14 C          66.0807   93.0148   13.7848 C.ar    1  UNL1        0.0043
     15 C          65.1722   91.9292   13.2888 C.ar    1  UNL1        0.0359
     16 C          64.7793   91.8829   11.8419 C.ar    1  UNL1        0.0043
     17 C          65.2950   92.9222   10.8911 C.ar    1  UNL1        0.0146
     18 C          67.4998   94.6331    9.2242 C.3     1  UNL1        0.1122
     19 N          66.7192   95.0471   10.4363 N.pl3   1  UNL1       -0.3041
     20 C          66.4542   96.5001   10.6977 C.3     1  UNL1        0.1122
     21 N          63.8003   86.2809   14.4284 N.pl3   1  UNL1       -0.3027
     22 C          64.8154   85.1956   14.6331 C.3     1  UNL1        0.1082
     23 C          65.0072   84.1407   13.5841 C.3     1  UNL1        0.0942
     24 N          64.1839   84.1710   12.3306 N.3     1  UNL1       -0.2620
     25 C          63.1689   85.2562   12.1259 C.3     1  UNL1        0.0942
     26 C          62.9771   86.3112   13.1748 C.3     1  UNL1        0.1082
     27 C          64.3757   83.1161   11.2816 C.3     1  UNL1        0.1589
     28 C          63.6274   83.2033    9.9844 C.2     1  UNL1        0.2439
     29 O          63.0456   81.9651    9.3694 O.2     1  UNL1       -0.2732
     30 N          63.4609   84.5289    9.3024 N.am    1  UNL1       -0.2630
     31 H          63.8428   85.3416    9.7060 H       1  UNL1        0.1568
     32 C          62.7127   84.6161    8.0053 C.ar    1  UNL1        0.1656
     33 N          63.1855   84.1007    6.6784 N.ar    1  UNL1       -0.2224
     34 C          62.1253   84.4000    5.6603 C.ar    1  UNL1        0.1079
     35 C          60.9972   85.1005    6.3581 C.ar    1  UNL1        0.0588
     36 S          61.3602   85.2340    7.8074 S.2     1  UNL1       -0.0508
@<TRIPOS>BOND
     1    18    19    1
     2    19    20    1
     3    19    12    1
     4    12    13   ar
     5    13    14   ar
     6    14    15   ar
     7    15     1    1
     8     1     2   ar
     9     2     3   ar
    10     3     4   ar
    11     4    21    1
    12    21    22    1
    13    22    23    1
    14    23    24    1
    15    24    27    1
    16    27    28    1
    17    28    29    2
    18    28    30   am
    19    30    32    1
    20    32    33   ar
    21    33    34   ar
    22    34    35   ar
    23    35    36   ar
    24    24    25    1
    25    25    26    1
    26     4     5   ar
    27     5     6    1
    28     5     7   ar
    29     7     8   ar
    30     8     9   ar
    31     9    10   ar
    32    15    16   ar
    33    16    17   ar
    34    17    12   ar
    35    10     1   ar
    36     9     3    1
    37    26    21    1
    38    36    32   ar
    39    30    31    1
    40     8    11    1
@<TRIPOS>MOLECULE
*****
 36 40 0 0 0
SMALL
GASTEIGER

@<TRIPOS>ATOM
      1 C          63.0180   85.0312   12.5387 C.ar    1  UNL1        0.1640
      2 N          62.3492   86.0071   11.6167 N.ar    1  UNL1       -0.2222
      3 C          62.7329   87.3912   12.0492 C.ar    1  UNL1        0.1309
      4 C          62.3743   88.7456   11.5137 C.ar    1  UNL1        0.0810
      5 C          62.9218   89.9796   12.1677 C.ar    1  UNL1        0.0895
      6 CL         62.5633   91.3342   11.6322 Cl      1  UNL1       -0.0793
      7 C          63.8278   89.8591   13.3570 C.ar    1  UNL1        0.0863
      8 N          64.1863   88.5046   13.8925 N.ar    1  UNL1       -0.3354
      9 C          63.6389   87.2706   13.2386 C.ar    1  UNL1        0.1613
     10 N          63.8151   85.8121   13.5412 N.ar    1  UNL1       -0.2081
     11 H          64.7810   88.4255   14.6732 H       1  UNL1        0.1675
     12 C          62.6909   80.5477   12.3336 C.ar    1  UNL1        0.0479
     13 C          63.1037   81.3259   11.1195 C.ar    1  UNL1        0.0146
     14 C          63.2127   82.8204   11.1880 C.ar    1  UNL1        0.0043
     15 C          62.9090   83.5367   12.4704 C.ar    1  UNL1        0.0359
     16 C          62.4962   82.7585   13.6845 C.ar    1  UNL1        0.0043
     17 C          62.3871   81.2640   13.6160 C.ar    1  UNL1        0.0146
     18 C          62.6904   78.3531   10.9432 C.3     1  UNL1        0.1122
     19 N          62.5818   79.0533   12.2653 N.pl3   1  UNL1       -0.3041
     20 C          62.3642   78.2590   13.5190 C.3     1  UNL1        0.1122
     21 N          61.4683   88.8662   10.3243 N.pl3   1  UNL1       -0.3027
     22 C          61.3899   87.7503    9.3251 C.3     1  UNL1        0.1082
     23 C          60.4839   87.8710    8.1357 C.3     1  UNL1        0.0942
     24 N          59.6563   89.1076    7.9457 N.3     1  UNL1       -0.2620
     25 C          59.7348   90.2235    8.9449 C.3     1  UNL1        0.0942
     26 C          60.6408   90.1028   10.1343 C.3     1  UNL1        0.1082
     27 C          58.7503   89.2283    6.7563 C.3     1  UNL1        0.1589
     28 C          58.9852   90.3072    5.7410 C.2     1  UNL1        0.2439
     29 O          57.8319   91.1167    5.2264 O.2     1  UNL1       -0.2732
     30 N          60.3732   90.5767    5.2403 N.am    1  UNL1       -0.2630
     31 H          61.1302   90.0454    5.5780 H       1  UNL1        0.1568
     32 C          60.6080   91.6556    4.2250 C.ar    1  UNL1        0.1656
     33 N          59.6646   92.7732    3.8921 N.ar    1  UNL1       -0.2224
     34 C          60.3008   93.6148    2.8257 C.ar    1  UNL1        0.1079
     35 C          61.6375   93.0172    2.4996 C.ar    1  UNL1        0.0588
     36 S          61.8273   91.8063    3.3645 S.2     1  UNL1       -0.0508
@<TRIPOS>BOND
     1    18    19    1
     2    19    20    1
     3    19    12    1
     4    12    13   ar
     5    13    14   ar
     6    14    15   ar
     7    15     1    1
     8     1     2   ar
     9     2     3   ar
    10     3     4   ar
    11     4    21    1
    12    21    22    1
    13    22    23    1
    14    23    24    1
    15    24    27    1
    16    27    28    1
    17    28    29    2
    18    28    30   am
    19    30    32    1
    20    32    33   ar
    21    33    34   ar
    22    34    35   ar
    23    35    36   ar
    24    24    25    1
    25    25    26    1
    26     4     5   ar
    27     5     6    1
    28     5     7   ar
    29     7     8   ar
    30     8     9   ar
    31     9    10   ar
    32    15    16   ar
    33    16    17   ar
    34    17    12   ar
    35    10     1   ar
    36     9     3    1
    37    26    21    1
    38    36    32   ar
    39    30    31    1
    40     8    11    1
@<TRIPOS>MOLECULE
*****
 36 40 0 0 0
SMALL
GASTEIGER

@<TRIPOS>ATOM
      1 C          65.6757   93.4189   12.4444 C.ar    1  UNL1        0.1640
      2 N          65.0268   92.0669   12.4756 N.ar    1  UNL1       -0.2222
      3 C          64.8178   91.6862   13.9113 C.ar    1  UNL1        0.1309
      4 C          64.2213   90.4669   14.5498 C.ar    1  UNL1        0.0810
      5 C          64.1446   90.3644   16.0443 C.ar    1  UNL1        0.0895
      6 CL         63.5481   89.1450   16.6828 Cl      1  UNL1       -0.0793
      7 C          64.6643   91.4810   16.9004 C.ar    1  UNL1        0.0863
      8 N          65.2607   92.7003   16.2619 N.ar    1  UNL1       -0.3354
      9 C          65.3375   92.8029   14.7674 C.ar    1  UNL1        0.1613
     10 N          65.8677   93.8738   13.8608 N.ar    1  UNL1       -0.2081
     11 H          65.6018   93.4332   16.8238 H       1  UNL1        0.1675
     12 C          66.8417   95.7086    8.7500 C.ar    1  UNL1        0.0479
     13 C          66.0340   96.3769    9.8228 C.ar    1  UNL1        0.0146
     14 C          65.6454   95.6136   11.0543 C.ar    1  UNL1        0.0043
     15 C          66.0644   94.1821   11.2129 C.ar    1  UNL1        0.0359
     16 C          66.8720   93.5138   10.1401 C.ar    1  UNL1        0.0043
     17 C          67.2606   94.2770    8.9086 C.ar    1  UNL1        0.0146
     18 C          68.6633   96.8543    7.2944 C.3     1  UNL1        0.1122
     19 N          67.2303   96.4717    7.5185 N.pl3   1  UNL1       -0.3041
     20 C          66.1861   96.8524    6.5113 C.3     1  UNL1        0.1122
     21 N          63.7016   89.3501   13.6937 N.pl3   1  UNL1       -0.3027
     22 C          62.7621   89.6469   12.5627 C.3     1  UNL1        0.1082
     23 C          62.2424   88.5301   11.7068 C.3     1  UNL1        0.0942
     24 N          62.6622   87.1166   11.9818 N.3     1  UNL1       -0.2620
     25 C          63.6017   86.8198   13.1128 C.3     1  UNL1        0.0942
     26 C          64.1214   87.9366   13.9688 C.3     1  UNL1        0.1082
     27 C          62.1425   85.9998   11.1259 C.3     1  UNL1        0.1589
     28 C          62.4593   84.5761   11.4767 C.2     1  UNL1        0.2439
     29 O          62.8837   83.6162   10.4050 O.2     1  UNL1       -0.2732
     30 N          62.3516   84.1125   12.8992 N.am    1  UNL1       -0.2630
     31 H          62.0730   84.7425   13.6025 H       1  UNL1        0.1568
     32 C          62.6684   82.6889   13.2499 C.ar    1  UNL1        0.1656
     33 N          64.0106   82.0296   13.1322 N.ar    1  UNL1       -0.2224
     34 C          63.8704   80.6079   13.5894 C.ar    1  UNL1        0.1079
     35 C          62.4415   80.3885   13.9897 C.ar    1  UNL1        0.0588
     36 S          61.6986   81.6746   13.7798 S.2     1  UNL1       -0.0508
@<TRIPOS>BOND
     1    18    19    1
     2    19    20    1
     3    19    12    1
     4    12    13   ar
     5    13    14   ar
     6    14    15   ar
     7    15     1    1
     8     1     2   ar
     9     2     3   ar
    10     3     4   ar
    11     4    21    1
    12    21    22    1
    13    22    23    1
    14    23    24    1
    15    24    27    1
    16    27    28    1
    17    28    29    2
    18    28    30   am
    19    30    32    1
    20    32    33   ar
    21    33    34   ar
    22    34    35   ar
    23    35    36   ar
    24    24    25    1
    25    25    26    1
    26     4     5   ar
    27     5     6    1
    28     5     7   ar
    29     7     8   ar
    30     8     9   ar
    31     9    10   ar
    32    15    16   ar
    33    16    17   ar
    34    17    12   ar
    35    10     1   ar
    36     9     3    1
    37    26    21    1
    38    36    32   ar
    39    30    31    1
    40     8    11    1
@<TRIPOS>MOLECULE
*****
 36 40 0 0 0
SMALL
GASTEIGER

@<TRIPOS>ATOM
      1 C          62.7337   89.9654   10.7082 C.ar    1  UNL1        0.1640
      2 N          61.9295   90.1601    9.4571 N.ar    1  UNL1       -0.2222
      3 C          61.1516   88.9024    9.2057 C.ar    1  UNL1        0.1309
      4 C          60.1905   88.5167    8.1206 C.ar    1  UNL1        0.0810
      5 C          59.5528   87.1590    8.1313 C.ar    1  UNL1        0.0895
      6 CL         58.5917   86.7732    7.0461 Cl      1  UNL1       -0.0793
      7 C          59.8763   86.1871    9.2270 C.ar    1  UNL1        0.0863
      8 N          60.8373   86.5728   10.3121 N.ar    1  UNL1       -0.3354
      9 C          61.4750   87.9305   10.3015 C.ar    1  UNL1        0.1613
     10 N          62.4528   88.5874   11.2301 N.ar    1  UNL1       -0.2081
     11 H          61.0496   85.9349   11.0313 H       1  UNL1        0.1675
     12 C          65.5029   92.9850   12.5694 C.ar    1  UNL1        0.0479
     13 C          64.8467   91.9419   13.4246 C.ar    1  UNL1        0.0146
     14 C          63.9236   90.9354   12.8042 C.ar    1  UNL1        0.0043
     15 C          63.6567   90.9719   11.3286 C.ar    1  UNL1        0.0359
     16 C          64.3129   92.0150   10.4733 C.ar    1  UNL1        0.0043
     17 C          65.2360   93.0215   11.0938 C.ar    1  UNL1        0.0146
     18 C          67.1750   93.6494   14.4434 C.3     1  UNL1        0.1122
     19 N          66.4259   93.9915   13.1898 N.pl3   1  UNL1       -0.3041
     20 C          66.5998   95.3401   12.5565 C.3     1  UNL1        0.1122
     21 N          59.8670   89.4887    7.0248 N.pl3   1  UNL1       -0.3027
     22 C          60.9689   90.0752    6.1930 C.3     1  UNL1        0.1082
     23 C          60.6453   91.0470    5.0973 C.3     1  UNL1        0.0942
     24 N          59.2199   91.4324    4.8333 N.3     1  UNL1       -0.2620
     25 C          58.1180   90.8459    5.6650 C.3     1  UNL1        0.0942
     26 C          58.4416   89.8740    6.7608 C.3     1  UNL1        0.1082
     27 C          58.8963   92.4043    3.7375 C.3     1  UNL1        0.1589
     28 C          60.0028   93.0563    2.9623 C.2     1  UNL1        0.2439
     29 O          60.1040   94.5520    2.9135 O.2     1  UNL1       -0.2732
     30 N          61.0080   92.2124    2.2360 N.am    1  UNL1       -0.2630
     31 H          60.9416   91.2307    2.2681 H       1  UNL1        0.1568
     32 C          62.1143   92.8644    1.4609 C.ar    1  UNL1        0.1656
     33 N          62.0111   93.4124    0.0685 N.ar    1  UNL1       -0.2224
     34 C          63.3511   93.9697   -0.3110 C.ar    1  UNL1        0.1079
     35 C          64.2825   93.7660    0.8471 C.ar    1  UNL1        0.0588
     36 S          63.5181   93.0829    1.9422 S.2     1  UNL1       -0.0508
@<TRIPOS>BOND
     1    18    19    1
     2    19    20    1
     3    19    12    1
     4    12    13   ar
     5    13    14   ar
     6    14    15   ar
     7    15     1    1
     8     1     2   ar
     9     2     3   ar
    10     3     4   ar
    11     4    21    1
    12    21    22    1
    13    22    23    1
    14    23    24    1
    15    24    27    1
    16    27    28    1
    17    28    29    2
    18    28    30   am
    19    30    32    1
    20    32    33   ar
    21    33    34   ar
    22    34    35   ar
    23    35    36   ar
    24    24    25    1
    25    25    26    1
    26     4     5   ar
    27     5     6    1
    28     5     7   ar
    29     7     8   ar
    30     8     9   ar
    31     9    10   ar
    32    15    16   ar
    33    16    17   ar
    34    17    12   ar
    35    10     1   ar
    36     9     3    1
    37    26    21    1
    38    36    32   ar
    39    30    31    1
    40     8    11    1
@<TRIPOS>MOLECULE
*****
 36 40 0 0 0
SMALL
GASTEIGER

@<TRIPOS>ATOM
      1 C          62.6324   85.3191   12.2642 C.ar    1  UNL1        0.1640
      2 N          63.0816   86.5529   12.9894 N.ar    1  UNL1       -0.2222
      3 C          62.9739   86.2899   14.4623 C.ar    1  UNL1        0.1309
      4 C          63.2788   87.1415   15.6588 C.ar    1  UNL1        0.0810
      5 C          63.0680   86.5967   17.0404 C.ar    1  UNL1        0.0895
      6 CL         63.3729   87.4484   18.2371 Cl      1  UNL1       -0.0793
      7 C          62.5522   85.2004   17.2254 C.ar    1  UNL1        0.0863
      8 N          62.2473   84.3488   16.0289 N.ar    1  UNL1       -0.3354
      9 C          62.4581   84.8935   14.6473 C.ar    1  UNL1        0.1613
     10 N          62.2471   84.2935   13.2888 N.ar    1  UNL1       -0.2081
     11 H          61.9088   83.4324   16.1504 H       1  UNL1        0.1675
     12 C          62.4695   84.7874    7.7987 C.ar    1  UNL1        0.0479
     13 C          63.4031   83.9487    8.6202 C.ar    1  UNL1        0.0146
     14 C          63.4573   84.1260   10.1088 C.ar    1  UNL1        0.0043
     15 C          62.5781   85.1419   10.7757 C.ar    1  UNL1        0.0359
     16 C          61.6446   85.9806    9.9541 C.ar    1  UNL1        0.0043
     17 C          61.5903   85.8034    8.4656 C.ar    1  UNL1        0.0146
     18 C          61.1489   84.1424    5.6564 C.3     1  UNL1        0.1122
     19 N          62.4152   84.6102    6.3102 N.pl3   1  UNL1       -0.3041
     20 C          63.6272   84.9009    5.4755 C.3     1  UNL1        0.1122
     21 N          63.7946   88.5379   15.4738 N.pl3   1  UNL1       -0.3027
     22 C          64.8135   88.8265   14.4116 C.3     1  UNL1        0.1082
     23 C          65.3292   90.2229   14.2267 C.3     1  UNL1        0.0942
     24 N          64.8260   91.3306   15.1041 N.3     1  UNL1       -0.2620
     25 C          63.8071   91.0419   16.1663 C.3     1  UNL1        0.0942
     26 C          63.2914   89.6456   16.3512 C.3     1  UNL1        0.1082
     27 C          65.3417   92.7269   14.9192 C.3     1  UNL1        0.1589
     28 C          66.2090   93.0562   13.7404 C.2     1  UNL1        0.2439
     29 O          67.7011   93.0838   13.8916 O.2     1  UNL1       -0.2732
     30 N          65.5842   93.3580   12.4105 N.am    1  UNL1       -0.2630
     31 H          64.6049   93.3399   12.3113 H       1  UNL1        0.1568
     32 C          66.4516   93.6872   11.2319 C.ar    1  UNL1        0.1656
     33 N          67.3931   92.7466   10.5400 N.ar    1  UNL1       -0.2224
     34 C          68.0532   93.4928    9.4187 C.ar    1  UNL1        0.1079
     35 C          67.5195   94.8948    9.4175 C.ar    1  UNL1        0.0588
     36 S          66.5297   95.0148   10.5381 S.2     1  UNL1       -0.0508
@<TRIPOS>BOND
     1    18    19    1
     2    19    20    1
     3    19    12    1
     4    12    13   ar
     5    13    14   ar
     6    14    15   ar
     7    15     1    1
     8     1     2   ar
     9     2     3   ar
    10     3     4   ar
    11     4    21    1
    12    21    22    1
    13    22    23    1
    14    23    24    1
    15    24    27    1
    16    27    28    1
    17    28    29    2
    18    28    30   am
    19    30    32    1
    20    32    33   ar
    21    33    34   ar
    22    34    35   ar
    23    35    36   ar
    24    24    25    1
    25    25    26    1
    26     4     5   ar
    27     5     6    1
    28     5     7   ar
    29     7     8   ar
    30     8     9   ar
    31     9    10   ar
    32    15    16   ar
    33    16    17   ar
    34    17    12   ar
    35    10     1   ar
    36     9     3    1
    37    26    21    1
    38    36    32   ar
    39    30    31    1
    40     8    11    1
@<TRIPOS>MOLECULE
*****
 36 40 0 0 0
SMALL
GASTEIGER

@<TRIPOS>ATOM
      1 C          61.5082   86.5948    9.8975 C.ar    1  UNL1        0.1640
      2 N          62.0077   87.0124   11.2488 N.ar    1  UNL1       -0.2222
      3 C          62.6626   85.8241   11.8884 C.ar    1  UNL1        0.1309
      4 C          63.3331   85.6423   13.2178 C.ar    1  UNL1        0.0810
      5 C          63.9087   84.3083   13.5912 C.ar    1  UNL1        0.0895
      6 CL         64.5792   84.1264   14.9207 Cl      1  UNL1       -0.0793
      7 C          63.8139   83.1564   12.6352 C.ar    1  UNL1        0.0863
      8 N          63.1435   83.3383   11.3058 N.ar    1  UNL1       -0.3354
      9 C          62.5678   84.6721   10.9324 C.ar    1  UNL1        0.1613
     10 N          61.8543   85.1484    9.7019 N.ar    1  UNL1       -0.2081
     11 H          63.0813   82.5822   10.6783 H       1  UNL1        0.1675
     12 C          59.3498   89.2200    6.9479 C.ar    1  UNL1        0.0479
     13 C          59.3123   87.7286    6.7922 C.ar    1  UNL1        0.0146
     14 C          60.0318   86.8536    7.7754 C.ar    1  UNL1        0.0043
     15 C          60.7887   87.4699    8.9143 C.ar    1  UNL1        0.0359
     16 C          60.8262   88.9613    9.0701 C.ar    1  UNL1        0.0043
     17 C          60.1068   89.8363    8.0868 C.ar    1  UNL1        0.0146
     18 C          57.1321   90.0722    5.8966 C.3     1  UNL1        0.1122
     19 N          58.6304   90.0951    5.9647 N.pl3   1  UNL1       -0.3041
     20 C          59.4092   90.9930    5.0498 C.3     1  UNL1        0.1122
     21 N          63.4279   86.7942   14.1739 N.pl3   1  UNL1       -0.3027
     22 C          63.1166   86.5904   15.6270 C.3     1  UNL1        0.1082
     23 C          63.2114   87.7424   16.5830 C.3     1  UNL1        0.0942
     24 N          63.6176   89.0981   16.0858 N.3     1  UNL1       -0.2620
     25 C          63.9290   89.3019   14.6328 C.3     1  UNL1        0.0942
     26 C          63.8341   88.1499   13.6768 C.3     1  UNL1        0.1082
     27 C          63.7125   90.2501   17.0418 C.3     1  UNL1        0.1589
     28 C          64.5604   91.4397   16.7010 C.2     1  UNL1        0.2439
     29 O          64.4850   92.6799   17.5414 O.2     1  UNL1       -0.2732
     30 N          65.4836   91.3891   15.5198 N.am    1  UNL1       -0.2630
     31 H          65.5331   90.5751   14.9683 H       1  UNL1        0.1568
     32 C          66.3313   92.5786   15.1791 C.ar    1  UNL1        0.1656
     33 N          66.0256   93.6082   14.1320 N.ar    1  UNL1       -0.2224
     34 C          67.1390   94.6135   14.1312 C.ar    1  UNL1        0.1079
     35 C          68.1328   94.2051   15.1780 C.ar    1  UNL1        0.0588
     36 S          67.6336   92.9475   15.8256 S.2     1  UNL1       -0.0508
@<TRIPOS>BOND
     1    18    19    1
     2    19    20    1
     3    19    12    1
     4    12    13   ar
     5    13    14   ar
     6    14    15   ar
     7    15     1    1
     8     1     2   ar
     9     2     3   ar
    10     3     4   ar
    11     4    21    1
    12    21    22    1
    13    22    23    1
    14    23    24    1
    15    24    27    1
    16    27    28    1
    17    28    29    2
    18    28    30   am
    19    30    32    1
    20    32    33   ar
    21    33    34   ar
    22    34    35   ar
    23    35    36   ar
    24    24    25    1
    25    25    26    1
    26     4     5   ar
    27     5     6    1
    28     5     7   ar
    29     7     8   ar
    30     8     9   ar
    31     9    10   ar
    32    15    16   ar
    33    16    17   ar
    34    17    12   ar
    35    10     1   ar
    36     9     3    1
    37    26    21    1
    38    36    32   ar
    39    30    31    1
    40     8    11    1
