@<TRIPOS>MOLECULE
*****
 21 24 0 0 0
SMALL
GASTEIGER

@<TRIPOS>ATOM
      1 C          60.6883   87.2046    8.7939 C.3     1  UNL1        0.0372
      2 C          59.8238   86.2457    8.0302 C.3     1  UNL1        0.0727
      3 N          58.7445   87.0350    7.3504 N.3     1  UNL1       -0.2972
      4 C          58.9420   88.4818    7.6941 C.3     1  UNL1        0.0690
      5 C          60.1433   88.5865    8.5862 C.3     1  UNL1        0.0236
      6 C          61.3563   88.3799    9.4440 C.3     1  UNL1        0.0364
      7 H          57.8299   86.7234    7.6770 H       1  UNL1        0.1233
      8 CL         64.4469   83.0645   10.9694 Cl      1  UNL1       -0.0814
      9 C          63.5072   84.0995   10.4255 C.ar    1  UNL1        0.0682
     10 C          63.5580   84.4691    8.9727 C.ar    1  UNL1        0.0119
     11 C          62.6184   85.5041    8.4288 C.ar    1  UNL1       -0.0033
     12 C          61.6280   86.1696    9.3378 C.ar    1  UNL1       -0.0205
     13 C          61.5772   85.8000   10.7906 C.ar    1  UNL1        0.0080
     14 C          62.5169   84.7649   11.3345 C.ar    1  UNL1        0.0679
     15 CL         62.4661   84.3953   12.7874 Cl      1  UNL1       -0.0814
     16 C          62.4424   88.9390   10.3145 C.3     1  UNL1        0.1425
     17 O          62.1226   89.4128   11.7013 O.3     1  UNL1       -0.3538
     18 C          63.0216   90.4022   12.3817 C.3     1  UNL1        0.1421
     19 C          63.9036   89.9607   13.5118 C.3     1  UNL1        0.0297
     20 C          65.0139   90.2438   14.4801 C.3     1  UNL1        0.0026
     21 C          64.3213   88.9133   14.5010 C.3     1  UNL1        0.0026
@<TRIPOS>BOND
     1     8     9    1
     2     9    10   ar
     3    10    11   ar
     4    11    12   ar
     5     1    12    1
     6     1     2    1
     7     2     3    1
     8     3     4    1
     9     5     4    1
    10     5     6    1
    11     6    16    1
    12    16    17    1
    13    17    18    1
    14    18    19    1
    15    19    20    1
    16    20    21    1
    17    12    13   ar
    18    13    14   ar
    19    14    15    1
    20    14     9   ar
    21     5     1    1
    22    21    19    1
    23     6     1    1
    24     3     7    1
@<TRIPOS>MOLECULE
*****
 21 24 0 0 0
SMALL
GASTEIGER

@<TRIPOS>ATOM
      1 C          64.5496   90.6757   13.8050 C.3     1  UNL1        0.0372
      2 C          65.7636   91.1030   14.5754 C.3     1  UNL1        0.0727
      3 N          66.4156   92.2275   13.8268 N.3     1  UNL1       -0.2972
      4 C          65.6045   92.4951   12.5936 C.3     1  UNL1        0.0690
      5 C          64.4513   91.5360   12.5802 C.3     1  UNL1        0.0236
      6 C          63.4226   90.4746   12.8356 C.3     1  UNL1        0.0364
      7 H          67.3659   91.9644   13.5657 H       1  UNL1        0.1233
      8 CL         62.8840   86.3459   17.6100 Cl      1  UNL1       -0.0814
      9 C          63.3004   87.4283   16.6588 C.ar    1  UNL1        0.0682
     10 C          62.9615   88.8590   16.9558 C.ar    1  UNL1        0.0119
     11 C          63.3780   89.9415   16.0045 C.ar    1  UNL1       -0.0033
     12 C          64.1332   89.5932   14.7562 C.ar    1  UNL1       -0.0205
     13 C          64.4720   88.1625   14.4592 C.ar    1  UNL1        0.0080
     14 C          64.0556   87.0801   15.4105 C.ar    1  UNL1        0.0679
     15 CL         64.3945   85.6493   15.1134 Cl      1  UNL1       -0.0814
     16 C          62.1781   89.7458   12.4235 C.3     1  UNL1        0.1425
     17 O          62.2805   88.4688   11.6431 O.3     1  UNL1       -0.3538
     18 C          62.0742   88.4793   10.1574 C.3     1  UNL1        0.1421
     19 C          61.9389   87.1859    9.4098 C.3     1  UNL1        0.0297
     20 C          62.5485   85.9220    8.8797 C.3     1  UNL1        0.0026
     21 C          61.0951   86.2097    8.6450 C.3     1  UNL1        0.0026
@<TRIPOS>BOND
     1     8     9    1
     2     9    10   ar
     3    10    11   ar
     4    11    12   ar
     5     1    12    1
     6     1     2    1
     7     2     3    1
     8     3     4    1
     9     5     4    1
    10     5     6    1
    11     6    16    1
    12    16    17    1
    13    17    18    1
    14    18    19    1
    15    19    20    1
    16    20    21    1
    17    12    13   ar
    18    13    14   ar
    19    14    15    1
    20    14     9   ar
    21     5     1    1
    22    21    19    1
    23     6     1    1
    24     3     7    1
@<TRIPOS>MOLECULE
*****
 21 24 0 0 0
SMALL
GASTEIGER

@<TRIPOS>ATOM
      1 C          63.9064   84.7560   13.2918 C.3     1  UNL1        0.0372
      2 C          64.9988   84.2093   14.1624 C.3     1  UNL1        0.0727
      3 N          65.4427   85.3014   15.0898 N.3     1  UNL1       -0.2972
      4 C          64.6246   86.5231   14.7925 C.3     1  UNL1        0.0690
      5 C          63.6752   86.1860   13.6813 C.3     1  UNL1        0.0236
      6 C          62.8611   85.5665   12.5843 C.3     1  UNL1        0.0364
      7 H          66.4315   85.5021   14.9401 H       1  UNL1        0.1233
      8 CL         63.0047   79.7099   10.1736 Cl      1  UNL1       -0.0814
      9 C          63.2301   80.9714   10.9531 C.ar    1  UNL1        0.0682
     10 C          63.8905   82.1490   10.2997 C.ar    1  UNL1        0.0119
     11 C          64.1159   83.4105   11.0792 C.ar    1  UNL1       -0.0033
     12 C          63.6809   83.4945   12.5123 C.ar    1  UNL1       -0.0205
     13 C          63.0205   82.3169   13.1658 C.ar    1  UNL1        0.0080
     14 C          62.7951   81.0554   12.3862 C.ar    1  UNL1        0.0679
     15 CL         62.1347   79.8777   13.0398 Cl      1  UNL1       -0.0814
     16 C          61.7876   85.6767   11.5424 C.3     1  UNL1        0.1425
     17 O          61.4170   87.0197   10.9866 O.3     1  UNL1       -0.3538
     18 C          61.5734   87.2935    9.5201 C.3     1  UNL1        0.1421
     19 C          62.0159   86.1984    8.5955 C.3     1  UNL1        0.0297
     20 C          61.7385   85.2820    7.4407 C.3     1  UNL1        0.0026
     21 C          63.0594   85.2178    8.1488 C.3     1  UNL1        0.0026
@<TRIPOS>BOND
     1     8     9    1
     2     9    10   ar
     3    10    11   ar
     4    11    12   ar
     5     1    12    1
     6     1     2    1
     7     2     3    1
     8     3     4    1
     9     5     4    1
    10     5     6    1
    11     6    16    1
    12    16    17    1
    13    17    18    1
    14    18    19    1
    15    19    20    1
    16    20    21    1
    17    12    13   ar
    18    13    14   ar
    19    14    15    1
    20    14     9   ar
    21     5     1    1
    22    21    19    1
    23     6     1    1
    24     3     7    1
@<TRIPOS>MOLECULE
*****
 21 24 0 0 0
SMALL
GASTEIGER

@<TRIPOS>ATOM
      1 C          63.8834   84.7834   13.2778 C.3     1  UNL1        0.0372
      2 C          64.8935   84.2105   14.2273 C.3     1  UNL1        0.0727
      3 N          65.3216   85.3021   15.1628 N.3     1  UNL1       -0.2972
      4 C          64.5762   86.5497   14.7914 C.3     1  UNL1        0.0690
      5 C          63.6873   86.2291   13.6264 C.3     1  UNL1        0.0236
      6 C          62.9208   85.6212   12.4894 C.3     1  UNL1        0.0364
      7 H          66.3256   85.4595   15.0747 H       1  UNL1        0.1233
      8 CL         62.9759   79.7165   10.1952 Cl      1  UNL1       -0.0814
      9 C          63.2028   80.9832   10.9659 C.ar    1  UNL1        0.0682
     10 C          63.8755   82.1512   10.3077 C.ar    1  UNL1        0.0119
     11 C          64.1024   83.4180   11.0784 C.ar    1  UNL1       -0.0033
     12 C          63.6566   83.5167   12.5072 C.ar    1  UNL1       -0.0205
     13 C          62.9838   82.3487   13.1653 C.ar    1  UNL1        0.0080
     14 C          62.7570   81.0820   12.3946 C.ar    1  UNL1        0.0679
     15 CL         62.0842   79.9139   13.0528 Cl      1  UNL1       -0.0814
     16 C          61.9226   85.7538   11.3777 C.3     1  UNL1        0.1425
     17 O          60.8391   86.7878   11.4621 O.3     1  UNL1       -0.3538
     18 C          60.9412   88.0486   10.6560 C.3     1  UNL1        0.1421
     19 C          62.0101   89.0538   10.9679 C.3     1  UNL1        0.0297
     20 C          63.0700   89.5791   11.8903 C.3     1  UNL1        0.0026
     21 C          62.8015   90.2694   10.5859 C.3     1  UNL1        0.0026
@<TRIPOS>BOND
     1     8     9    1
     2     9    10   ar
     3    10    11   ar
     4    11    12   ar
     5     1    12    1
     6     1     2    1
     7     2     3    1
     8     3     4    1
     9     5     4    1
    10     5     6    1
    11     6    16    1
    12    16    17    1
    13    17    18    1
    14    18    19    1
    15    19    20    1
    16    20    21    1
    17    12    13   ar
    18    13    14   ar
    19    14    15    1
    20    14     9   ar
    21     5     1    1
    22    21    19    1
    23     6     1    1
    24     3     7    1
@<TRIPOS>MOLECULE
*****
 21 24 0 0 0
SMALL
GASTEIGER

@<TRIPOS>ATOM
      1 C          60.7545   87.2067    8.8040 C.3     1  UNL1        0.0372
      2 C          59.7716   86.2559    8.1877 C.3     1  UNL1        0.0727
      3 N          58.6870   87.0652    7.5407 N.3     1  UNL1       -0.2972
      4 C          58.9996   88.5162    7.7571 C.3     1  UNL1        0.0690
      5 C          60.2774   88.6037    8.5379 C.3     1  UNL1        0.0236
      6 C          61.5452   88.3779    9.3071 C.3     1  UNL1        0.0364
      7 H          57.7868   86.8382    7.9633 H       1  UNL1        0.1233
      8 CL         64.4317   82.9900   10.9714 Cl      1  UNL1       -0.0814
      9 C          63.5124   84.0441   10.4295 C.ar    1  UNL1        0.0682
     10 C          63.5665   84.4115    8.9763 C.ar    1  UNL1        0.0119
     11 C          62.6472   85.4657    8.4344 C.ar    1  UNL1       -0.0033
     12 C          61.6738   86.1525    9.3459 C.ar    1  UNL1       -0.0205
     13 C          61.6197   85.7852   10.7991 C.ar    1  UNL1        0.0080
     14 C          62.5390   84.7310   11.3410 C.ar    1  UNL1        0.0679
     15 CL         62.4849   84.3636   12.7944 Cl      1  UNL1       -0.0814
     16 C          62.7337   88.9238   10.0415 C.3     1  UNL1        0.1425
     17 O          62.5587   90.0433   11.0243 O.3     1  UNL1       -0.3538
     18 C          61.7014   89.8474   12.2394 C.3     1  UNL1        0.1421
     19 C          60.2069   89.8917   12.1181 C.3     1  UNL1        0.0297
     20 C          58.8636   89.2779   12.3805 C.3     1  UNL1        0.0026
     21 C          58.9618   90.5820   11.6456 C.3     1  UNL1        0.0026
@<TRIPOS>BOND
     1     8     9    1
     2     9    10   ar
     3    10    11   ar
     4    11    12   ar
     5     1    12    1
     6     1     2    1
     7     2     3    1
     8     3     4    1
     9     5     4    1
    10     5     6    1
    11     6    16    1
    12    16    17    1
    13    17    18    1
    14    18    19    1
    15    19    20    1
    16    20    21    1
    17    12    13   ar
    18    13    14   ar
    19    14    15    1
    20    14     9   ar
    21     5     1    1
    22    21    19    1
    23     6     1    1
    24     3     7    1
@<TRIPOS>MOLECULE
*****
 21 24 0 0 0
SMALL
GASTEIGER

@<TRIPOS>ATOM
      1 C          63.2847   82.3630   12.6598 C.3     1  UNL1        0.0372
      2 C          62.4434   81.3142   11.9948 C.3     1  UNL1        0.0727
      3 N          62.4797   80.0811   12.8481 N.3     1  UNL1       -0.2972
      4 C          63.3435   80.3678   14.0405 C.3     1  UNL1        0.0690
      5 C          63.8410   81.7781   13.9240 C.3     1  UNL1        0.0236
      6 C          64.1725   83.1901   13.5417 C.3     1  UNL1        0.0364
      7 H          62.8707   79.3035   12.3162 H       1  UNL1        0.1233
      8 CL         62.3972   86.6037    8.5090 Cl      1  UNL1       -0.0814
      9 C          62.6191   85.5435    9.5467 C.ar    1  UNL1        0.0682
     10 C          63.5473   84.3997    9.2638 C.ar    1  UNL1        0.0119
     11 C          63.7692   83.3395   10.3015 C.ar    1  UNL1       -0.0033
     12 C          63.0629   83.4232   11.6221 C.ar    1  UNL1       -0.0205
     13 C          62.1347   84.5670   11.9050 C.ar    1  UNL1        0.0080
     14 C          61.9128   85.6272   10.8673 C.ar    1  UNL1        0.0679
     15 CL         60.9846   86.7710   11.1504 Cl      1  UNL1       -0.0814
     16 C          64.8764   84.4829   13.8301 C.3     1  UNL1        0.1425
     17 O          64.1794   85.5588   14.6089 O.3     1  UNL1       -0.3538
     18 C          63.4376   85.2138   15.8662 C.3     1  UNL1        0.1421
     19 C          63.1144   86.2856   16.8645 C.3     1  UNL1        0.0297
     20 C          62.7025   86.6896   18.2492 C.3     1  UNL1        0.0026
     21 C          62.9664   87.7380   17.2093 C.3     1  UNL1        0.0026
@<TRIPOS>BOND
     1     8     9    1
     2     9    10   ar
     3    10    11   ar
     4    11    12   ar
     5     1    12    1
     6     1     2    1
     7     2     3    1
     8     3     4    1
     9     5     4    1
    10     5     6    1
    11     6    16    1
    12    16    17    1
    13    17    18    1
    14    18    19    1
    15    19    20    1
    16    20    21    1
    17    12    13   ar
    18    13    14   ar
    19    14    15    1
    20    14     9   ar
    21     5     1    1
    22    21    19    1
    23     6     1    1
    24     3     7    1
@<TRIPOS>MOLECULE
*****
 21 24 0 0 0
SMALL
GASTEIGER

@<TRIPOS>ATOM
      1 C          65.6483   92.2464   12.8997 C.3     1  UNL1        0.0372
      2 C          66.6615   92.7286   13.8952 C.3     1  UNL1        0.0727
      3 N          66.3418   92.1047   15.2213 N.3     1  UNL1       -0.2972
      4 C          65.1310   91.2369   15.0454 C.3     1  UNL1        0.0690
      5 C          64.7025   91.3245   13.6106 C.3     1  UNL1        0.0236
      6 C          64.5190   91.6058   12.1487 C.3     1  UNL1        0.0364
      7 H          66.1488   92.8329   15.9090 H       1  UNL1        0.1233
      8 CL         67.8717   95.2779    8.2235 Cl      1  UNL1       -0.0814
      9 C          67.3158   94.5201    9.3926 C.ar    1  UNL1        0.0682
     10 C          66.3595   95.1897   10.3344 C.ar    1  UNL1        0.0119
     11 C          65.8037   94.4318   11.5034 C.ar    1  UNL1       -0.0033
     12 C          66.2042   93.0043   11.7307 C.ar    1  UNL1       -0.0205
     13 C          67.1605   92.3346   10.7889 C.ar    1  UNL1        0.0080
     14 C          67.7163   93.0925    9.6199 C.ar    1  UNL1        0.0679
     15 CL         68.6727   92.4228    8.6781 Cl      1  UNL1       -0.0814
     16 C          63.7610   91.3984   10.8710 C.3     1  UNL1        0.1425
     17 O          62.5625   90.4967   10.8479 O.3     1  UNL1       -0.3538
     18 C          62.6390   89.1317   11.4650 C.3     1  UNL1        0.1421
     19 C          62.0924   87.9442   10.7293 C.3     1  UNL1        0.0297
     20 C          61.2355   86.7132   10.7042 C.3     1  UNL1        0.0026
     21 C          62.0025   87.1184    9.4803 C.3     1  UNL1        0.0026
@<TRIPOS>BOND
     1     8     9    1
     2     9    10   ar
     3    10    11   ar
     4    11    12   ar
     5     1    12    1
     6     1     2    1
     7     2     3    1
     8     3     4    1
     9     5     4    1
    10     5     6    1
    11     6    16    1
    12    16    17    1
    13    17    18    1
    14    18    19    1
    15    19    20    1
    16    20    21    1
    17    12    13   ar
    18    13    14   ar
    19    14    15    1
    20    14     9   ar
    21     5     1    1
    22    21    19    1
    23     6     1    1
    24     3     7    1
@<TRIPOS>MOLECULE
*****
 21 24 0 0 0
SMALL
GASTEIGER

@<TRIPOS>ATOM
      1 C          66.3190   92.7040   14.0002 C.3     1  UNL1        0.0372
      2 C          67.3810   93.5708   14.6092 C.3     1  UNL1        0.0727
      3 N          67.2993   93.4255   16.1000 N.3     1  UNL1       -0.2972
      4 C          66.1869   92.4690   16.4122 C.3     1  UNL1        0.0690
      5 C          65.5810   92.0230   15.1145 C.3     1  UNL1        0.0236
      6 C          65.1907   91.7658   13.6892 C.3     1  UNL1        0.0364
      7 H          67.1062   94.3320   16.5260 H       1  UNL1        0.1233
      8 CL         67.5893   94.0695    8.2974 Cl      1  UNL1       -0.0814
      9 C          67.2717   93.7281    9.7231 C.ar    1  UNL1        0.0682
     10 C          67.7847   92.4516   10.3208 C.ar    1  UNL1        0.0119
     11 C          67.4671   92.1102   11.7465 C.ar    1  UNL1       -0.0033
     12 C          66.6366   93.0453   12.5745 C.ar    1  UNL1       -0.0205
     13 C          66.1236   94.3219   11.9768 C.ar    1  UNL1        0.0080
     14 C          66.4412   94.6632   10.5511 C.ar    1  UNL1        0.0679
     15 CL         65.9281   95.9399    9.9534 Cl      1  UNL1       -0.0814
     16 C          64.3139   91.0757   12.6867 C.3     1  UNL1        0.1425
     17 O          63.6843   89.7565   13.0234 O.3     1  UNL1       -0.3538
     18 C          64.2405   88.9232   14.1398 C.3     1  UNL1        0.1421
     19 C          63.6519   89.0238   15.5159 C.3     1  UNL1        0.0297
     20 C          63.1211   88.3624   16.7532 C.3     1  UNL1        0.0026
     21 C          63.1633   89.8591   16.6620 C.3     1  UNL1        0.0026
@<TRIPOS>BOND
     1     8     9    1
     2     9    10   ar
     3    10    11   ar
     4    11    12   ar
     5     1    12    1
     6     1     2    1
     7     2     3    1
     8     3     4    1
     9     5     4    1
    10     5     6    1
    11     6    16    1
    12    16    17    1
    13    17    18    1
    14    18    19    1
    15    19    20    1
    16    20    21    1
    17    12    13   ar
    18    13    14   ar
    19    14    15    1
    20    14     9   ar
    21     5     1    1
    22    21    19    1
    23     6     1    1
    24     3     7    1
@<TRIPOS>MOLECULE
*****
 21 24 0 0 0
SMALL
GASTEIGER

@<TRIPOS>ATOM
      1 C          63.2181   82.5272   12.6568 C.3     1  UNL1        0.0372
      2 C          62.4583   81.4336   11.9663 C.3     1  UNL1        0.0727
      3 N          62.5172   80.2102   12.8323 N.3     1  UNL1       -0.2972
      4 C          63.3135   80.5478   14.0579 C.3     1  UNL1        0.0690
      5 C          63.7466   81.9798   13.9494 C.3     1  UNL1        0.0236
      6 C          64.0254   83.4034   13.5681 C.3     1  UNL1        0.0364
      7 H          62.9684   79.4487   12.3253 H       1  UNL1        0.1233
      8 CL         62.3071   86.6881    8.4309 Cl      1  UNL1       -0.0814
      9 C          62.5348   85.6478    9.4874 C.ar    1  UNL1        0.0682
     10 C          63.4715   84.5058    9.2259 C.ar    1  UNL1        0.0119
     11 C          63.6992   83.4656   10.2824 C.ar    1  UNL1       -0.0033
     12 C          62.9903   83.5674   11.6003 C.ar    1  UNL1       -0.0205
     13 C          62.0537   84.7095   11.8618 C.ar    1  UNL1        0.0080
     14 C          61.8259   85.7497   10.8054 C.ar    1  UNL1        0.0679
     15 CL         60.8892   86.8917   11.0669 Cl      1  UNL1       -0.0814
     16 C          64.6525   84.7313   13.8740 C.3     1  UNL1        0.1425
     17 O          63.7970   85.8797   14.3202 O.3     1  UNL1       -0.3538
     18 C          64.4250   87.0692   14.9840 C.3     1  UNL1        0.1421
     19 C          64.2947   88.4293   14.3650 C.3     1  UNL1        0.0297
     20 C          64.6784   89.8788   14.3212 C.3     1  UNL1        0.0026
     21 C          63.6854   89.3357   13.3367 C.3     1  UNL1        0.0026
@<TRIPOS>BOND
     1     8     9    1
     2     9    10   ar
     3    10    11   ar
     4    11    12   ar
     5     1    12    1
     6     1     2    1
     7     2     3    1
     8     3     4    1
     9     5     4    1
    10     5     6    1
    11     6    16    1
    12    16    17    1
    13    17    18    1
    14    18    19    1
    15    19    20    1
    16    20    21    1
    17    12    13   ar
    18    13    14   ar
    19    14    15    1
    20    14     9   ar
    21     5     1    1
    22    21    19    1
    23     6     1    1
    24     3     7    1
