@<TRIPOS>MOLECULE
*****
 49 54 0 0 0
SMALL
GASTEIGER

@<TRIPOS>ATOM
      1 C          59.7814   92.5791    3.3299 C.3     1  UNL1        0.0901
      2 C          58.7870   92.9397    2.2664 C.3     1  UNL1        0.0354
      3 C          59.0281   93.1936    0.8079 C.2     1  UNL1       -0.0255
      4 C          57.7532   93.5272    0.0916 C.2     1  UNL1       -0.0089
      5 C          57.7734   93.8168   -1.3801 C.3     1  UNL1        0.1402
      6 CL         56.4984   94.1504   -2.0964 Cl      1  UNL1       -0.1039
      7 C          59.0686   93.7728   -2.1354 C.2     1  UNL1        0.0849
      8 N          59.3969   94.0108   -3.5795 N.am    1  UNL1       -0.1635
      9 C          60.8748   93.8243   -3.7557 C.2     1  UNL1        0.3313
     10 O          61.6343   93.9661   -5.0414 O.2     1  UNL1       -0.2501
     11 N          61.4599   93.4710   -2.4205 N.am    1  UNL1       -0.2324
     12 C          60.3436   93.4392   -1.4190 C.2     1  UNL1        0.0657
     13 C          60.3233   93.1496    0.0526 C.2     1  UNL1        0.0082
     14 C          61.6973   92.8409    0.5693 C.3     1  UNL1        0.1213
     15 N          62.1153   92.4999    1.9690 N.am    1  UNL1       -0.2676
     16 C          61.2627   92.3834    3.1975 C.2     1  UNL1        0.2264
     17 O          61.9871   92.0236    4.4608 O.2     1  UNL1       -0.2748
     18 C          59.2204   92.3892    4.7081 C.3     1  UNL1        0.0947
     19 O          57.1755   90.8089    4.4420 O.2     1  UNL1       -0.2749
     20 C          58.5076   91.1169    5.0589 C.2     1  UNL1        0.2261
     21 N          59.1269   90.1525    6.0265 N.am    1  UNL1       -0.2794
     22 C          58.4141   88.8801    6.3774 C.3     1  UNL1        0.0951
     23 C          59.0335   87.9158    7.3450 C.3     1  UNL1        0.0414
     24 C          60.3656   88.2238    7.9619 C.3     1  UNL1        0.0803
     25 C          61.0784   89.4961    7.6112 C.3     1  UNL1        0.0414
     26 C          60.4591   90.4605    6.6435 C.3     1  UNL1        0.0951
     27 N          60.9849   87.2594    8.9296 N.am    1  UNL1       -0.2651
     28 C          61.8790   86.2166    8.3272 C.3     1  UNL1        0.0996
     29 C          62.6371   85.1222    9.0181 C.3     1  UNL1        0.0491
     30 C          62.6885   84.8002   10.4823 C.ar    1  UNL1       -0.0070
     31 C          63.5718   83.6186   10.7529 C.ar    1  UNL1       -0.0030
     32 C          63.7609   83.1299   12.1585 C.ar    1  UNL1       -0.0002
     33 C          63.0668   83.8229   13.2932 C.ar    1  UNL1        0.0013
     34 C          62.1834   85.0047   13.0225 C.ar    1  UNL1        0.0144
     35 C          61.9942   85.4933   11.6171 C.ar    1  UNL1        0.0476
     36 N          61.0773   86.6794   11.5680 N.am    1  UNL1       -0.2684
     37 C          60.6281   87.4653   10.3720 C.2     1  UNL1        0.3076
     38 O          59.6992   88.6085   10.6558 O.2     1  UNL1       -0.2522
     39 H          60.7235   86.9820   12.4355 H       1  UNL1        0.1564
     40 C          62.9072   93.1976   -2.1365 C.3     1  UNL1        0.2029
     41 C          63.9213   94.2923   -2.2891 C.3     1  UNL1        0.4160
     42 F          64.9353   95.3869   -2.4417 F       1  UNL1       -0.1682
     43 F          64.4392   93.6386   -3.5359 F       1  UNL1       -0.1682
     44 F          63.4033   94.9459   -1.0423 F       1  UNL1       -0.1682
     45 C          63.5796   92.2412    2.1660 C.3     1  UNL1        0.1976
     46 C          64.5863   93.2710    1.7466 C.3     1  UNL1        0.4157
     47 F          65.5931   94.3009    1.3272 F       1  UNL1       -0.1682
     48 F          65.0423   92.3728    0.6352 F       1  UNL1       -0.1682
     49 F          64.1304   94.1693    2.8580 F       1  UNL1       -0.1682
@<TRIPOS>BOND
     1    19    20    2
     2    20    18    1
     3     1    18    1
     4     1     2    1
     5     2     3    1
     6     3     4    2
     7     4     5    1
     8     5     6    1
     9     5     7    1
    10     7     8    2
    11     8     9    1
    12     9    10    2
    13     9    11   am
    14    11    40    1
    15    40    41    1
    16    41    42    1
    17    41    43    1
    18    41    44    1
    19    11    12    1
    20    12    13    2
    21    13    14    1
    22    14    15    1
    23    15    45    1
    24    45    46    1
    25    46    47    1
    26    46    48    1
    27    46    49    1
    28    15    16   am
    29    16    17    2
    30    20    21   am
    31    21    22    1
    32    22    23    1
    33    23    24    1
    34    24    27    1
    35    27    28    1
    36    28    29    1
    37    29    30    1
    38    30    31   ar
    39    31    32   ar
    40    32    33   ar
    41    33    34   ar
    42    34    35   ar
    43    35    36    1
    44    36    37   am
    45    37    38    2
    46    24    25    1
    47    25    26    1
    48    16     1    1
    49    26    21    1
    50    13     3    1
    51    37    27   am
    52    12     7    1
    53    35    30   ar
    54    36    39    1
@<TRIPOS>MOLECULE
*****
 49 54 0 0 0
SMALL
GASTEIGER

@<TRIPOS>ATOM
      1 C          61.2424   88.3980    8.8992 C.3     1  UNL1        0.0901
      2 C          61.9326   89.7267    8.9884 C.3     1  UNL1        0.0354
      3 C          62.7745   90.2703   10.1046 C.2     1  UNL1       -0.0255
      4 C          63.2789   91.6474    9.7900 C.2     1  UNL1       -0.0089
      5 C          64.1429   92.3736   10.7781 C.3     1  UNL1        0.1402
      6 CL         64.6473   93.7508   10.4634 Cl      1  UNL1       -0.1039
      7 C          64.5024   91.7225   12.0807 C.2     1  UNL1        0.0849
      8 N          65.3301   92.1894   13.2413 N.am    1  UNL1       -0.1635
      9 C          65.3372   91.1007   14.2732 C.2     1  UNL1        0.3313
     10 O          66.0436   91.1441   15.5957 O.2     1  UNL1       -0.2501
     11 N          64.5139   89.9611   13.7503 N.am    1  UNL1       -0.2324
     12 C          63.9980   90.3454   12.3953 C.2     1  UNL1        0.0657
     13 C          63.1340   89.6192   11.4072 C.2     1  UNL1        0.0082
     14 C          62.7405   88.2639   11.9155 C.3     1  UNL1        0.1213
     15 N          61.8902   87.2249   11.2465 N.am    1  UNL1       -0.2676
     16 C          61.2235   87.2846    9.9041 C.2     1  UNL1        0.2264
     17 O          60.4334   86.0703    9.5153 O.2     1  UNL1       -0.2748
     18 C          60.4687   88.1498    7.6383 C.3     1  UNL1        0.0947
     19 O          58.1058   89.2113    7.8378 O.2     1  UNL1       -0.2749
     20 C          59.4498   89.1483    7.1748 C.2     1  UNL1        0.2261
     21 N          59.7749   90.0838    6.0482 N.am    1  UNL1       -0.2794
     22 C          58.7560   91.0823    5.5846 C.3     1  UNL1        0.0951
     23 C          59.0811   92.0177    4.4581 C.3     1  UNL1        0.0414
     24 C          60.4251   91.9547    3.7951 C.3     1  UNL1        0.0803
     25 C          61.4440   90.9563    4.2586 C.3     1  UNL1        0.0414
     26 C          61.1190   90.0208    5.3851 C.3     1  UNL1        0.0951
     27 N          60.7502   92.8903    2.6685 N.am    1  UNL1       -0.2651
     28 C          59.5723   93.5051    1.9726 C.3     1  UNL1        0.0996
     29 C          59.5635   94.4688    0.8231 C.3     1  UNL1        0.0491
     30 C          60.7304   95.0556    0.0857 C.ar    1  UNL1       -0.0070
     31 C          60.2800   95.9818   -1.0049 C.ar    1  UNL1       -0.0030
     32 C          61.2936   96.6760   -1.8655 C.ar    1  UNL1       -0.0002
     33 C          62.7575   96.4441   -1.6357 C.ar    1  UNL1        0.0013
     34 C          63.2080   95.5179   -0.5450 C.ar    1  UNL1        0.0144
     35 C          62.1945   94.8237    0.3156 C.ar    1  UNL1        0.0476
     36 N          62.8531   93.9477    1.3397 N.am    1  UNL1       -0.2684
     37 C          62.2103   93.0872    2.3868 C.2     1  UNL1        0.3076
     38 O          63.1522   92.3226    3.2690 O.2     1  UNL1       -0.2522
     39 H          63.8374   93.9359    1.3223 H       1  UNL1        0.1564
     40 C          64.2524   88.6647   14.4583 C.3     1  UNL1        0.2029
     41 C          63.5458   88.6620   15.7814 C.3     1  UNL1        0.4160
     42 F          62.8393   88.6592   17.1045 F       1  UNL1       -0.1682
     43 F          63.9957   87.2508   16.0187 F       1  UNL1       -0.1682
     44 F          63.0960   90.0731   15.5442 F       1  UNL1       -0.1682
     45 C          61.6787   85.9588   12.0225 C.3     1  UNL1        0.1976
     46 C          62.8044   84.9805   12.1830 C.3     1  UNL1        0.4157
     47 F          63.9301   84.0022   12.3434 F       1  UNL1       -0.1682
     48 F          62.4545   84.3612   10.8624 F       1  UNL1       -0.1682
     49 F          63.1543   85.5998   13.5035 F       1  UNL1       -0.1682
@<TRIPOS>BOND
     1    19    20    2
     2    20    18    1
     3     1    18    1
     4     1     2    1
     5     2     3    1
     6     3     4    2
     7     4     5    1
     8     5     6    1
     9     5     7    1
    10     7     8    2
    11     8     9    1
    12     9    10    2
    13     9    11   am
    14    11    40    1
    15    40    41    1
    16    41    42    1
    17    41    43    1
    18    41    44    1
    19    11    12    1
    20    12    13    2
    21    13    14    1
    22    14    15    1
    23    15    45    1
    24    45    46    1
    25    46    47    1
    26    46    48    1
    27    46    49    1
    28    15    16   am
    29    16    17    2
    30    20    21   am
    31    21    22    1
    32    22    23    1
    33    23    24    1
    34    24    27    1
    35    27    28    1
    36    28    29    1
    37    29    30    1
    38    30    31   ar
    39    31    32   ar
    40    32    33   ar
    41    33    34   ar
    42    34    35   ar
    43    35    36    1
    44    36    37   am
    45    37    38    2
    46    24    25    1
    47    25    26    1
    48    16     1    1
    49    26    21    1
    50    13     3    1
    51    37    27   am
    52    12     7    1
    53    35    30   ar
    54    36    39    1
@<TRIPOS>MOLECULE
*****
 49 54 0 0 0
SMALL
GASTEIGER

@<TRIPOS>ATOM
      1 C          60.8116   87.5754    8.6518 C.3     1  UNL1        0.0901
      2 C          61.2112   86.2083    9.1223 C.3     1  UNL1        0.0354
      3 C          61.9649   85.8293   10.3626 C.2     1  UNL1       -0.0255
      4 C          62.1564   84.3446   10.4552 C.2     1  UNL1       -0.0089
      5 C          62.8883   83.7542   11.6240 C.3     1  UNL1        0.1402
      6 CL         63.0799   82.2693   11.7165 Cl      1  UNL1       -0.1039
      7 C          63.4286   84.6487   12.7000 C.2     1  UNL1        0.0849
      8 N          64.1863   84.3568   13.9613 N.am    1  UNL1       -0.1635
      9 C          64.4630   85.6613   14.6481 C.2     1  UNL1        0.3313
     10 O          65.1974   85.8369   15.9442 O.2     1  UNL1       -0.2501
     11 N          63.8763   86.7593   13.8114 N.am    1  UNL1       -0.2324
     12 C          63.2370   86.1335   12.6074 C.2     1  UNL1        0.0657
     13 C          62.5051   86.7238   11.4387 C.2     1  UNL1        0.0082
     14 C          62.4251   88.2183   11.5403 C.3     1  UNL1        0.1213
     15 N          61.7851   89.1872   10.5908 N.am    1  UNL1       -0.2676
     16 C          61.0670   88.9011    9.3054 C.2     1  UNL1        0.2264
     17 O          60.5339   90.0992    8.5771 O.2     1  UNL1       -0.2748
     18 C          60.0568   87.6231    7.3564 C.3     1  UNL1        0.0947
     19 O          57.8752   88.9674    7.7842 O.2     1  UNL1       -0.2749
     20 C          59.1702   88.7928    7.0476 C.2     1  UNL1        0.2261
     21 N          59.5784   89.7882    6.0023 N.am    1  UNL1       -0.2794
     22 C          58.6918   90.9580    5.6935 C.3     1  UNL1        0.0951
     23 C          59.1002   91.9532    4.6483 C.3     1  UNL1        0.0414
     24 C          60.3952   91.7787    3.9117 C.3     1  UNL1        0.0803
     25 C          61.2818   90.6089    4.2205 C.3     1  UNL1        0.0414
     26 C          60.8735   89.6136    5.2658 C.3     1  UNL1        0.0951
     27 N          60.8035   92.7740    2.8664 N.am    1  UNL1       -0.2651
     28 C          59.6831   93.5229    2.2078 C.3     1  UNL1        0.0996
     29 C          59.7607   94.5715    1.1381 C.3     1  UNL1        0.0491
     30 C          60.9779   95.1303    0.4628 C.ar    1  UNL1       -0.0070
     31 C          60.6114   96.1682   -0.5563 C.ar    1  UNL1       -0.0030
     32 C          61.6853   96.8542   -1.3477 C.ar    1  UNL1       -0.0002
     33 C          63.1255   96.5024   -1.1201 C.ar    1  UNL1        0.0013
     34 C          63.4920   95.4644   -0.1010 C.ar    1  UNL1        0.0144
     35 C          62.4182   94.7784    0.6904 C.ar    1  UNL1        0.0476
     36 N          62.9970   93.7809    1.6495 N.am    1  UNL1       -0.2684
     37 C          62.2783   92.8889    2.6179 C.2     1  UNL1        0.3076
     38 O          63.1498   91.9932    3.4477 O.2     1  UNL1       -0.2522
     39 H          63.9782   93.7011    1.6425 H       1  UNL1        0.1564
     40 C          63.9210   88.2258   14.1238 C.3     1  UNL1        0.2029
     41 C          63.7223   88.6987   15.5334 C.3     1  UNL1        0.4160
     42 F          63.5235   89.1716   16.9429 F       1  UNL1       -0.1682
     43 F          64.5409   89.9207   15.2388 F       1  UNL1       -0.1682
     44 F          62.9037   87.4767   15.8280 F       1  UNL1       -0.1682
     45 C          61.8751   90.6336   10.9781 C.3     1  UNL1        0.1976
     46 C          63.2117   91.3112   11.0416 C.3     1  UNL1        0.4157
     47 F          64.5485   91.9890   11.1052 F       1  UNL1       -0.1682
     48 F          63.2305   91.1349   12.5311 F       1  UNL1       -0.1682
     49 F          63.1930   91.4877    9.5522 F       1  UNL1       -0.1682
@<TRIPOS>BOND
     1    19    20    2
     2    20    18    1
     3     1    18    1
     4     1     2    1
     5     2     3    1
     6     3     4    2
     7     4     5    1
     8     5     6    1
     9     5     7    1
    10     7     8    2
    11     8     9    1
    12     9    10    2
    13     9    11   am
    14    11    40    1
    15    40    41    1
    16    41    42    1
    17    41    43    1
    18    41    44    1
    19    11    12    1
    20    12    13    2
    21    13    14    1
    22    14    15    1
    23    15    45    1
    24    45    46    1
    25    46    47    1
    26    46    48    1
    27    46    49    1
    28    15    16   am
    29    16    17    2
    30    20    21   am
    31    21    22    1
    32    22    23    1
    33    23    24    1
    34    24    27    1
    35    27    28    1
    36    28    29    1
    37    29    30    1
    38    30    31   ar
    39    31    32   ar
    40    32    33   ar
    41    33    34   ar
    42    34    35   ar
    43    35    36    1
    44    36    37   am
    45    37    38    2
    46    24    25    1
    47    25    26    1
    48    16     1    1
    49    26    21    1
    50    13     3    1
    51    37    27   am
    52    12     7    1
    53    35    30   ar
    54    36    39    1
@<TRIPOS>MOLECULE
*****
 49 54 0 0 0
SMALL
GASTEIGER

@<TRIPOS>ATOM
      1 C          59.7757   92.3981    3.6873 C.3     1  UNL1        0.0901
      2 C          61.2469   92.5830    3.4609 C.3     1  UNL1        0.0354
      3 C          61.9666   92.8720    2.1769 C.2     1  UNL1       -0.0255
      4 C          63.4469   92.9832    2.3914 C.2     1  UNL1       -0.0089
      5 C          64.3535   93.2699    1.2312 C.3     1  UNL1        0.1402
      6 CL         65.8339   93.3810    1.4458 Cl      1  UNL1       -0.1039
      7 C          63.7795   93.4455   -0.1435 C.2     1  UNL1        0.0849
      8 N          64.4196   93.7337   -1.4690 N.am    1  UNL1       -0.1635
      9 C          63.3348   93.8007   -2.5028 C.2     1  UNL1        0.3313
     10 O          63.5268   94.0676   -3.9663 O.2     1  UNL1       -0.2501
     11 N          62.0242   93.5539   -1.8161 N.am    1  UNL1       -0.2324
     12 C          62.2991   93.3344   -0.3579 C.2     1  UNL1        0.0657
     13 C          61.3926   93.0476    0.8023 C.2     1  UNL1        0.0082
     14 C          59.9573   92.9775    0.3720 C.3     1  UNL1        0.1213
     15 N          58.7415   92.7145    1.2103 N.am    1  UNL1       -0.2676
     16 C          58.6607   92.4566    2.6857 C.2     1  UNL1        0.2264
     17 O          57.2826   92.2269    3.2317 O.2     1  UNL1       -0.2748
     18 C          59.3652   92.1176    5.1026 C.3     1  UNL1        0.0947
     19 O          57.3396   90.5129    4.8351 O.2     1  UNL1       -0.2749
     20 C          58.6741   90.8303    5.4419 C.2     1  UNL1        0.2261
     21 N          59.3176   89.8603    6.3879 N.am    1  UNL1       -0.2794
     22 C          58.6265   88.5729    6.7273 C.3     1  UNL1        0.0951
     23 C          59.2700   87.6030    7.6733 C.3     1  UNL1        0.0414
     24 C          60.6046   87.9203    8.2801 C.3     1  UNL1        0.0803
     25 C          61.2956   89.2076    7.9408 C.3     1  UNL1        0.0414
     26 C          60.6522   90.1776    6.9947 C.3     1  UNL1        0.0951
     27 N          61.2480   86.9503    9.2261 N.am    1  UNL1       -0.2651
     28 C          62.1667   85.9431    8.6006 C.3     1  UNL1        0.0996
     29 C          62.9519   84.8526    9.2671 C.3     1  UNL1        0.0491
     30 C          63.0124   84.4999   10.7238 C.ar    1  UNL1       -0.0070
     31 C          63.9245   83.3345   10.9682 C.ar    1  UNL1       -0.0030
     32 C          64.1267   82.8199   12.3626 C.ar    1  UNL1       -0.0002
     33 C          63.4169   83.4707   13.5125 C.ar    1  UNL1        0.0013
     34 C          62.5047   84.6362   13.2681 C.ar    1  UNL1        0.0144
     35 C          62.3025   85.1508   11.8738 C.ar    1  UNL1        0.0476
     36 N          61.3568   86.3150   11.8512 N.am    1  UNL1       -0.2684
     37 C          60.8876   87.1158   10.6728 C.2     1  UNL1        0.3076
     38 O          59.9314   88.2295   10.9820 O.2     1  UNL1       -0.2522
     39 H          60.9966   86.5897   12.7252 H       1  UNL1        0.1564
     40 C          60.6756   93.5307   -2.4724 C.3     1  UNL1        0.2029
     41 C          60.1496   94.7616   -3.1493 C.3     1  UNL1        0.4160
     42 F          59.6237   95.9924   -3.8261 F       1  UNL1       -0.1682
     43 F          60.3288   94.1035   -4.4853 F       1  UNL1       -0.1682
     44 F          59.9704   95.4197   -1.8133 F       1  UNL1       -0.1682
     45 C          57.4336   92.7086    0.4759 C.3     1  UNL1        0.1976
     46 C          57.3668   93.1964   -0.9409 C.3     1  UNL1        0.4157
     47 F          57.2999   93.6843   -2.3579 F       1  UNL1       -0.1682
     48 F          57.3162   91.7783   -1.4270 F       1  UNL1       -0.1682
     49 F          57.4173   94.6146   -0.4550 F       1  UNL1       -0.1682
@<TRIPOS>BOND
     1    19    20    2
     2    20    18    1
     3     1    18    1
     4     1     2    1
     5     2     3    1
     6     3     4    2
     7     4     5    1
     8     5     6    1
     9     5     7    1
    10     7     8    2
    11     8     9    1
    12     9    10    2
    13     9    11   am
    14    11    40    1
    15    40    41    1
    16    41    42    1
    17    41    43    1
    18    41    44    1
    19    11    12    1
    20    12    13    2
    21    13    14    1
    22    14    15    1
    23    15    45    1
    24    45    46    1
    25    46    47    1
    26    46    48    1
    27    46    49    1
    28    15    16   am
    29    16    17    2
    30    20    21   am
    31    21    22    1
    32    22    23    1
    33    23    24    1
    34    24    27    1
    35    27    28    1
    36    28    29    1
    37    29    30    1
    38    30    31   ar
    39    31    32   ar
    40    32    33   ar
    41    33    34   ar
    42    34    35   ar
    43    35    36    1
    44    36    37   am
    45    37    38    2
    46    24    25    1
    47    25    26    1
    48    16     1    1
    49    26    21    1
    50    13     3    1
    51    37    27   am
    52    12     7    1
    53    35    30   ar
    54    36    39    1
