@<TRIPOS>MOLECULE
*****
 22 25 0 0 0
SMALL
GASTEIGER

@<TRIPOS>ATOM
      1 C          62.8405   84.1852   13.7147 C.ar    1  UNL1        0.1330
      2 C          62.7866   85.0573   12.4955 C.ar    1  UNL1        0.0489
      3 C          62.6893   84.4371   11.1333 C.ar    1  UNL1        0.0630
      4 N          62.6460   82.9445   10.9902 N.ar    1  UNL1       -0.2307
      5 C          62.7000   82.0723   12.2093 C.ar    1  UNL1        0.1664
      6 C          62.6757   80.5821   12.3792 C.ar    1  UNL1        0.0613
      7 C          62.7581   80.2815   13.8464 C.ar    1  UNL1        0.1238
      8 N          62.8331   81.5859   14.5834 N.ar    1  UNL1       -0.1610
      9 N          62.7972   82.6926   13.5716 N.ar    1  UNL1       -0.1988
     10 C          62.6354   85.3093    9.9141 C.3     1  UNL1        0.0404
     11 C          62.2458   86.5998    9.2564 C.3     1  UNL1        0.0063
     12 C          62.9314   85.5294    8.4602 C.3     1  UNL1        0.0063
     13 N          62.9378   84.8055   15.0769 N.pl3   1  UNL1       -0.3139
     14 H          62.2465   84.6199   15.7528 H       1  UNL1        0.1485
     15 C          64.0884   85.7087   15.4093 C.3     1  UNL1        0.1231
     16 C          64.0285   90.9382   14.6820 C.3     1  UNL1        0.0594
     17 C          63.8267   89.5792   15.2841 C.ar    1  UNL1        0.0880
     18 N          63.1613   89.2860   16.5960 N.ar    1  UNL1       -0.2473
     19 C          63.1783   87.8004   16.8026 C.ar    1  UNL1        0.0631
     20 C          62.6177   87.0683   17.9858 C.3     1  UNL1        0.0523
     21 C          63.8542   87.1755   15.6184 C.ar    1  UNL1        0.0416
     22 S          64.2550   88.2748   14.6799 S.2     1  UNL1       -0.0738
@<TRIPOS>BOND
     1    16    17    1
     2    17    18   ar
     3    18    19   ar
     4    19    20    1
     5    19    21   ar
     6    21    15    1
     7    15    13    1
     8    13     1    1
     9     1     2   ar
    10     2     3   ar
    11     3    10    1
    12    10    11    1
    13    11    12    1
    14     3     4   ar
    15     4     5   ar
    16     5     6   ar
    17     6     7   ar
    18     7     8   ar
    19     8     9   ar
    20    21    22   ar
    21    22    17   ar
    22     9     1   ar
    23    12    10    1
    24     9     5   ar
    25    13    14    1
@<TRIPOS>MOLECULE
*****
 22 25 0 0 0
SMALL
GASTEIGER

@<TRIPOS>ATOM
      1 C          64.5950   91.7774   12.4792 C.ar    1  UNL1        0.1330
      2 C          65.3266   92.1147   11.2139 C.ar    1  UNL1        0.0489
      3 C          66.6750   92.7685   11.2788 C.ar    1  UNL1        0.0630
      4 N          67.2919   93.0850   12.6090 N.ar    1  UNL1       -0.2307
      5 C          66.5603   92.7476   13.8742 C.ar    1  UNL1        0.1664
      6 C          66.9140   92.9382   15.3194 C.ar    1  UNL1        0.0613
      7 C          65.7842   92.4021   16.1477 C.ar    1  UNL1        0.1238
      8 N          64.7322   91.8803   15.2144 N.ar    1  UNL1       -0.1610
      9 N          65.2119   92.0938   13.8093 N.ar    1  UNL1       -0.1988
     10 C          67.4066   93.1059   10.0134 C.3     1  UNL1        0.0404
     11 C          67.7230   94.0777    8.9155 C.3     1  UNL1        0.0063
     12 C          68.3574   92.7185    8.9199 C.3     1  UNL1        0.0063
     13 N          63.2466   91.1235   12.4143 N.pl3   1  UNL1       -0.3139
     14 H          62.8082   90.8162   13.2405 H       1  UNL1        0.1485
     15 C          62.5660   90.9379   11.0905 C.3     1  UNL1        0.1231
     16 C          61.1952   86.0191    9.7466 C.3     1  UNL1        0.0594
     17 C          61.1238   87.4428   10.2136 C.ar    1  UNL1        0.0880
     18 N          59.8848   88.1660   10.6513 N.ar    1  UNL1       -0.2473
     19 C          60.2742   89.5634   11.0331 C.ar    1  UNL1        0.0631
     20 C          59.3467   90.6327   11.5295 C.3     1  UNL1        0.0523
     21 C          61.7538   89.7037   10.8313 C.ar    1  UNL1        0.0416
     22 S          62.2790   88.3931   10.3248 S.2     1  UNL1       -0.0738
@<TRIPOS>BOND
     1    16    17    1
     2    17    18   ar
     3    18    19   ar
     4    19    20    1
     5    19    21   ar
     6    21    15    1
     7    15    13    1
     8    13     1    1
     9     1     2   ar
    10     2     3   ar
    11     3    10    1
    12    10    11    1
    13    11    12    1
    14     3     4   ar
    15     4     5   ar
    16     5     6   ar
    17     6     7   ar
    18     7     8   ar
    19     8     9   ar
    20    21    22   ar
    21    22    17   ar
    22     9     1   ar
    23    12    10    1
    24     9     5   ar
    25    13    14    1
@<TRIPOS>MOLECULE
*****
 22 25 0 0 0
SMALL
GASTEIGER

@<TRIPOS>ATOM
      1 C          62.7328   86.6275   12.1214 C.ar    1  UNL1        0.1330
      2 C          62.0771   86.0346   10.9095 C.ar    1  UNL1        0.0489
      3 C          61.6869   86.9167    9.7608 C.ar    1  UNL1        0.0630
      4 N          61.9525   88.3917    9.8238 N.ar    1  UNL1       -0.2307
      5 C          62.6082   88.9845   11.0357 C.ar    1  UNL1        0.1664
      6 C          62.9935   90.3925   11.3807 C.ar    1  UNL1        0.0613
      7 C          63.6218   90.3806   12.7427 C.ar    1  UNL1        0.1238
      8 N          63.6249   88.9653   13.2394 N.ar    1  UNL1       -0.1610
      9 N          62.9984   88.1024   12.1844 N.ar    1  UNL1       -0.1988
     10 C          61.0311   86.3238    8.5490 C.3     1  UNL1        0.0404
     11 C          59.8245   86.1633    7.6726 C.3     1  UNL1        0.0063
     12 C          61.1020   85.4574    7.3265 C.3     1  UNL1        0.0063
     13 N          63.1230   85.7453   13.2701 N.pl3   1  UNL1       -0.3139
     14 H          62.7386   85.9010   14.1630 H       1  UNL1        0.1485
     15 C          64.0989   84.6260   13.0585 C.3     1  UNL1        0.1231
     16 C          61.9684   79.8211   13.5627 C.3     1  UNL1        0.0594
     17 C          62.6217   81.0376   12.9768 C.ar    1  UNL1        0.0880
     18 N          63.0478   81.2082   11.5488 N.ar    1  UNL1       -0.2473
     19 C          63.6530   82.5732   11.4056 C.ar    1  UNL1        0.0631
     20 C          64.2121   83.1618   10.1442 C.3     1  UNL1        0.0523
     21 C          63.6010   83.2462   12.7450 C.ar    1  UNL1        0.0416
     22 S          62.9636   82.2972   13.7161 S.2     1  UNL1       -0.0738
@<TRIPOS>BOND
     1    16    17    1
     2    17    18   ar
     3    18    19   ar
     4    19    20    1
     5    19    21   ar
     6    21    15    1
     7    15    13    1
     8    13     1    1
     9     1     2   ar
    10     2     3   ar
    11     3    10    1
    12    10    11    1
    13    11    12    1
    14     3     4   ar
    15     4     5   ar
    16     5     6   ar
    17     6     7   ar
    18     7     8   ar
    19     8     9   ar
    20    21    22   ar
    21    22    17   ar
    22     9     1   ar
    23    12    10    1
    24     9     5   ar
    25    13    14    1
@<TRIPOS>MOLECULE
*****
 22 25 0 0 0
SMALL
GASTEIGER

@<TRIPOS>ATOM
      1 C          64.0775   89.1599   14.1893 C.ar    1  UNL1        0.1330
      2 C          65.0182   90.1232   14.8504 C.ar    1  UNL1        0.0489
      3 C          65.3390   91.4311   14.1899 C.ar    1  UNL1        0.0630
      4 N          64.7190   91.7759   12.8682 N.ar    1  UNL1       -0.2307
      5 C          63.7783   90.8126   12.2071 C.ar    1  UNL1        0.1664
      6 C          63.0204   90.8771   10.9142 C.ar    1  UNL1        0.0613
      7 C          62.2314   89.6090   10.7757 C.ar    1  UNL1        0.1238
      8 N          62.5015   88.7607   11.9830 N.ar    1  UNL1       -0.1610
      9 N          63.4576   89.5046   12.8676 N.ar    1  UNL1       -0.1988
     10 C          66.2797   92.3945   14.8511 C.3     1  UNL1        0.0404
     11 C          67.0370   92.8444   16.0651 C.3     1  UNL1        0.0063
     12 C          67.1517   93.6131   14.7822 C.3     1  UNL1        0.0063
     13 N          63.7568   87.8519   14.8498 N.pl3   1  UNL1       -0.3139
     14 H          62.9456   87.7645   15.4007 H       1  UNL1        0.1485
     15 C          64.6722   86.6771   14.6711 C.3     1  UNL1        0.1231
     16 C          63.7028   81.6110   13.5418 C.3     1  UNL1        0.0594
     17 C          63.6770   82.9540   14.2095 C.ar    1  UNL1        0.0880
     18 N          62.8767   83.3194   15.4243 N.ar    1  UNL1       -0.2473
     19 C          63.1521   84.7586   15.7452 C.ar    1  UNL1        0.0631
     20 C          62.5608   85.5371   16.8829 C.3     1  UNL1        0.0523
     21 C          64.1226   85.2826   14.7286 C.ar    1  UNL1        0.0416
     22 S          64.4470   84.1673   13.7794 S.2     1  UNL1       -0.0738
@<TRIPOS>BOND
     1    16    17    1
     2    17    18   ar
     3    18    19   ar
     4    19    20    1
     5    19    21   ar
     6    21    15    1
     7    15    13    1
     8    13     1    1
     9     1     2   ar
    10     2     3   ar
    11     3    10    1
    12    10    11    1
    13    11    12    1
    14     3     4   ar
    15     4     5   ar
    16     5     6   ar
    17     6     7   ar
    18     7     8   ar
    19     8     9   ar
    20    21    22   ar
    21    22    17   ar
    22     9     1   ar
    23    12    10    1
    24     9     5   ar
    25    13    14    1
@<TRIPOS>MOLECULE
*****
 22 25 0 0 0
SMALL
GASTEIGER

@<TRIPOS>ATOM
      1 C          61.7021   87.1674   11.0079 C.ar    1  UNL1        0.1330
      2 C          62.5882   88.2305   11.5862 C.ar    1  UNL1        0.0489
      3 C          62.5910   89.6085   10.9940 C.ar    1  UNL1        0.0630
      4 N          61.7077   89.9236    9.8232 N.ar    1  UNL1       -0.2307
      5 C          60.8216   88.8605    9.2448 C.ar    1  UNL1        0.1664
      6 C          59.8509   88.8756    8.1014 C.ar    1  UNL1        0.0613
      7 C          59.2482   87.5068    7.9870 C.ar    1  UNL1        0.1238
      8 N          59.8463   86.6457    9.0597 N.ar    1  UNL1       -0.1610
      9 N          60.8188   87.4824    9.8371 N.ar    1  UNL1       -0.1988
     10 C          63.4772   90.6717   11.5724 C.3     1  UNL1        0.0404
     11 C          64.4134   91.8280   11.3816 C.3     1  UNL1        0.0063
     12 C          64.0758   91.3568   12.7651 C.3     1  UNL1        0.0063
     13 N          61.6993   85.7893   11.6002 N.pl3   1  UNL1       -0.3139
     14 H          60.9043   85.2159   11.5088 H       1  UNL1        0.1485
     15 C          62.9078   85.2849   12.3317 C.3     1  UNL1        0.1231
     16 C          62.4148   80.1233   13.3296 C.3     1  UNL1        0.0594
     17 C          62.6276   81.5972   13.5098 C.ar    1  UNL1        0.0880
     18 N          62.9160   82.2945   14.8061 N.ar    1  UNL1       -0.2473
     19 C          63.0560   83.7608   14.5226 C.ar    1  UNL1        0.0631
     20 C          63.3468   84.8304   15.5333 C.3     1  UNL1        0.0523
     21 C          62.8542   83.9697   13.0511 C.ar    1  UNL1        0.0416
     22 S          62.5894   82.6325   12.4250 S.2     1  UNL1       -0.0738
@<TRIPOS>BOND
     1    16    17    1
     2    17    18   ar
     3    18    19   ar
     4    19    20    1
     5    19    21   ar
     6    21    15    1
     7    15    13    1
     8    13     1    1
     9     1     2   ar
    10     2     3   ar
    11     3    10    1
    12    10    11    1
    13    11    12    1
    14     3     4   ar
    15     4     5   ar
    16     5     6   ar
    17     6     7   ar
    18     7     8   ar
    19     8     9   ar
    20    21    22   ar
    21    22    17   ar
    22     9     1   ar
    23    12    10    1
    24     9     5   ar
    25    13    14    1
@<TRIPOS>MOLECULE
*****
 22 25 0 0 0
SMALL
GASTEIGER

@<TRIPOS>ATOM
      1 C          61.8712   86.4703   11.0575 C.ar    1  UNL1        0.1330
      2 C          62.0518   85.6043    9.8461 C.ar    1  UNL1        0.0489
      3 C          61.5593   86.0728    8.5091 C.ar    1  UNL1        0.0630
      4 N          60.8860   87.4074    8.3833 N.ar    1  UNL1       -0.2307
      5 C          60.7054   88.2733    9.5947 C.ar    1  UNL1        0.1664
      6 C          60.0843   89.6264    9.7775 C.ar    1  UNL1        0.0613
      7 C          60.1931   89.9941   11.2277 C.ar    1  UNL1        0.1238
      8 N          60.8813   88.8683   11.9410 N.ar    1  UNL1       -0.1610
      9 N          61.1980   87.8048   10.9318 N.ar    1  UNL1       -0.1988
     10 C          61.7399   85.2067    7.2977 C.3     1  UNL1        0.0404
     11 C          61.1521   84.3885    6.1865 C.3     1  UNL1        0.0063
     12 C          62.6406   84.5250    6.3108 C.3     1  UNL1        0.0063
     13 N          62.3638   86.0018   12.3946 N.pl3   1  UNL1       -0.3139
     14 H          62.0362   86.4309   13.2179 H       1  UNL1        0.1485
     15 C          63.3555   84.8794   12.4774 C.3     1  UNL1        0.1231
     16 C          62.2527   79.7598   13.1514 C.3     1  UNL1        0.0594
     17 C          62.4549   81.2225   13.4159 C.ar    1  UNL1        0.0880
     18 N          62.2572   81.9162   14.7309 N.ar    1  UNL1       -0.2473
     19 C          62.5704   83.3706   14.5394 C.ar    1  UNL1        0.0631
     20 C          62.5040   84.4334   15.5960 C.3     1  UNL1        0.0523
     21 C          62.9618   83.5756   13.1061 C.ar    1  UNL1        0.0416
     22 S          62.8904   82.2480   12.4116 S.2     1  UNL1       -0.0738
@<TRIPOS>BOND
     1    16    17    1
     2    17    18   ar
     3    18    19   ar
     4    19    20    1
     5    19    21   ar
     6    21    15    1
     7    15    13    1
     8    13     1    1
     9     1     2   ar
    10     2     3   ar
    11     3    10    1
    12    10    11    1
    13    11    12    1
    14     3     4   ar
    15     4     5   ar
    16     5     6   ar
    17     6     7   ar
    18     7     8   ar
    19     8     9   ar
    20    21    22   ar
    21    22    17   ar
    22     9     1   ar
    23    12    10    1
    24     9     5   ar
    25    13    14    1
@<TRIPOS>MOLECULE
*****
 22 25 0 0 0
SMALL
GASTEIGER

@<TRIPOS>ATOM
      1 C          61.5750   88.8001   10.2912 C.ar    1  UNL1        0.1330
      2 C          62.2224   87.7485   11.1426 C.ar    1  UNL1        0.0489
      3 C          61.9393   86.2978   10.8873 C.ar    1  UNL1        0.0630
      4 N          61.0088   85.8986    9.7805 N.ar    1  UNL1       -0.2307
      5 C          60.3614   86.9503    8.9291 C.ar    1  UNL1        0.1664
      6 C          59.4075   86.8603    7.7750 C.ar    1  UNL1        0.0613
      7 C          59.1010   88.2554    7.3171 C.ar    1  UNL1        0.1238
      8 N          59.8655   89.2077    8.1882 N.ar    1  UNL1       -0.1610
      9 N          60.6445   88.4011    9.1845 N.ar    1  UNL1       -0.1988
     10 C          62.5868   85.2461   11.7387 C.3     1  UNL1        0.0404
     11 C          63.1557   83.8666   11.8907 C.3     1  UNL1        0.0063
     12 C          63.1393   84.8042   13.0614 C.3     1  UNL1        0.0063
     13 N          61.8580   90.2509   10.5466 N.pl3   1  UNL1       -0.3139
     14 H          61.1216   90.9042   10.5430 H       1  UNL1        0.1485
     15 C          63.2632   90.7062   10.8075 C.3     1  UNL1        0.1231
     16 C          63.6963   90.4442   16.0634 C.3     1  UNL1        0.0594
     17 C          63.9242   90.8245   14.6304 C.ar    1  UNL1        0.0880
     18 N          64.9475   91.7998   14.1291 N.ar    1  UNL1       -0.2473
     19 C          64.8245   91.8743   12.6360 C.ar    1  UNL1        0.0631
     20 C          65.6550   92.7283   11.7243 C.3     1  UNL1        0.0523
     21 C          63.7252   90.9450   12.2146 C.ar    1  UNL1        0.0416
     22 S          63.1687   90.2961   13.4472 S.2     1  UNL1       -0.0738
@<TRIPOS>BOND
     1    16    17    1
     2    17    18   ar
     3    18    19   ar
     4    19    20    1
     5    19    21   ar
     6    21    15    1
     7    15    13    1
     8    13     1    1
     9     1     2   ar
    10     2     3   ar
    11     3    10    1
    12    10    11    1
    13    11    12    1
    14     3     4   ar
    15     4     5   ar
    16     5     6   ar
    17     6     7   ar
    18     7     8   ar
    19     8     9   ar
    20    21    22   ar
    21    22    17   ar
    22     9     1   ar
    23    12    10    1
    24     9     5   ar
    25    13    14    1
@<TRIPOS>MOLECULE
*****
 22 25 0 0 0
SMALL
GASTEIGER

@<TRIPOS>ATOM
      1 C          61.6480   87.1717   11.1519 C.ar    1  UNL1        0.1330
      2 C          60.8061   87.3282    9.9204 C.ar    1  UNL1        0.0489
      3 C          60.7301   88.6564    9.2277 C.ar    1  UNL1        0.0630
      4 N          61.4961   89.8283    9.7665 N.ar    1  UNL1       -0.2307
      5 C          62.3381   89.6717   10.9980 C.ar    1  UNL1        0.1664
      6 C          63.1975   90.6396   11.7559 C.ar    1  UNL1        0.0613
      7 C          63.8046   89.9095   12.9171 C.ar    1  UNL1        0.1238
      8 N          63.3204   88.4904   12.8768 N.ar    1  UNL1       -0.1610
      9 N          62.4140   88.3434   11.6907 N.ar    1  UNL1       -0.1988
     10 C          59.8881   88.8130    7.9961 C.3     1  UNL1        0.0404
     11 C          59.5284   89.5780    6.7572 C.3     1  UNL1        0.0063
     12 C          58.7895   88.3191    7.1022 C.3     1  UNL1        0.0063
     13 N          61.7240   85.8434   11.8446 N.pl3   1  UNL1       -0.3139
     14 H          60.9019   85.4099   12.1695 H       1  UNL1        0.1485
     15 C          63.0524   85.1755   12.0424 C.3     1  UNL1        0.1231
     16 C          62.6009   80.1738   13.6731 C.3     1  UNL1        0.0594
     17 C          62.9426   81.6336   13.6260 C.ar    1  UNL1        0.0880
     18 N          63.6585   82.4064   14.6938 N.ar    1  UNL1       -0.2473
     19 C          63.7868   83.8273   14.2306 C.ar    1  UNL1        0.0631
     20 C          64.4374   84.9464   14.9885 C.3     1  UNL1        0.0523
     21 C          63.1502   83.9326   12.8765 C.ar    1  UNL1        0.0416
     22 S          62.6285   82.5768   12.5028 S.2     1  UNL1       -0.0738
@<TRIPOS>BOND
     1    16    17    1
     2    17    18   ar
     3    18    19   ar
     4    19    20    1
     5    19    21   ar
     6    21    15    1
     7    15    13    1
     8    13     1    1
     9     1     2   ar
    10     2     3   ar
    11     3    10    1
    12    10    11    1
    13    11    12    1
    14     3     4   ar
    15     4     5   ar
    16     5     6   ar
    17     6     7   ar
    18     7     8   ar
    19     8     9   ar
    20    21    22   ar
    21    22    17   ar
    22     9     1   ar
    23    12    10    1
    24     9     5   ar
    25    13    14    1
@<TRIPOS>MOLECULE
*****
 22 25 0 0 0
SMALL
GASTEIGER

@<TRIPOS>ATOM
      1 C          62.8294   87.6120   12.0831 C.ar    1  UNL1        0.1330
      2 C          61.9504   88.1254   10.9814 C.ar    1  UNL1        0.0489
      3 C          61.2244   87.1616   10.0904 C.ar    1  UNL1        0.0630
      4 N          61.3774   85.6843   10.3010 N.ar    1  UNL1       -0.2307
      5 C          62.2564   85.1709   11.4027 C.ar    1  UNL1        0.1664
      6 C          62.5987   83.7800   11.8480 C.ar    1  UNL1        0.0613
      7 C          63.5363   83.8843   13.0142 C.ar    1  UNL1        0.1238
      8 N          63.7735   85.3396   13.2897 N.ar    1  UNL1       -0.1610
      9 N          62.9824   86.1348   12.2938 N.ar    1  UNL1       -0.1988
     10 C          60.3453   87.6750    8.9886 C.3     1  UNL1        0.0404
     11 C          59.8502   88.8120    8.1450 C.3     1  UNL1        0.0063
     12 C          59.3180   87.4271    7.9242 C.3     1  UNL1        0.0063
     13 N          63.5554   88.5759   12.9741 N.pl3   1  UNL1       -0.3139
     14 H          64.1619   88.2392   13.6728 H       1  UNL1        0.1485
     15 C          63.3575   90.0526   12.8006 C.3     1  UNL1        0.1231
     16 C          66.7401   92.6553   15.9093 C.3     1  UNL1        0.0594
     17 C          65.9624   92.2076   14.7073 C.ar    1  UNL1        0.0880
     18 N          66.0845   92.7652   13.3203 N.ar    1  UNL1       -0.2473
     19 C          65.1236   92.0258   12.4372 C.ar    1  UNL1        0.0631
     20 C          64.9153   92.2600   10.9702 C.3     1  UNL1        0.0523
     21 C          64.4076   91.0112   13.2784 C.ar    1  UNL1        0.0416
     22 S          64.9260   91.1235   14.6815 S.2     1  UNL1       -0.0738
@<TRIPOS>BOND
     1    16    17    1
     2    17    18   ar
     3    18    19   ar
     4    19    20    1
     5    19    21   ar
     6    21    15    1
     7    15    13    1
     8    13     1    1
     9     1     2   ar
    10     2     3   ar
    11     3    10    1
    12    10    11    1
    13    11    12    1
    14     3     4   ar
    15     4     5   ar
    16     5     6   ar
    17     6     7   ar
    18     7     8   ar
    19     8     9   ar
    20    21    22   ar
    21    22    17   ar
    22     9     1   ar
    23    12    10    1
    24     9     5   ar
    25    13    14    1
