@<TRIPOS>MOLECULE
*****
 36 40 0 0 0
SMALL
GASTEIGER

@<TRIPOS>ATOM
      1 C          64.0572   85.6034   14.8951 C.3     1  UNL1        0.1909
      2 C          64.9875   84.4331   14.7727 C.3     1  UNL1        0.1783
      3 O          64.4494   83.5225   13.7091 O.3     1  UNL1       -0.3267
      4 C          63.1865   84.1300   13.1741 C.3     1  UNL1        0.2296
      5 O          62.9441   85.4161   13.9072 O.3     1  UNL1       -0.3255
      6 C          63.1639   82.9181   12.2907 C.ar    1  UNL1        0.0409
      7 C          63.8533   82.9479   10.9588 C.ar    1  UNL1        0.0022
      8 C          63.8307   81.7359   10.0753 C.ar    1  UNL1        0.0113
      9 C          63.1188   80.4941   10.5237 C.ar    1  UNL1        0.0585
     10 CL         63.0962   79.2820    9.6402 Cl      1  UNL1       -0.0822
     11 C          62.4295   80.4642   11.8557 C.ar    1  UNL1        0.0226
     12 C          62.4521   81.6762   12.7391 C.ar    1  UNL1        0.0591
     13 CL         61.7628   81.6464   14.0710 Cl      1  UNL1       -0.0824
     14 C          64.2127   86.7582   15.8397 C.3     1  UNL1        0.2374
     15 O          63.3906   87.9984   15.6498 O.3     1  UNL1       -0.4727
     16 C          64.8659   91.2847   12.9528 C.ar    1  UNL1        0.0481
     17 C          63.7911   90.3517   12.4794 C.ar    1  UNL1        0.0176
     18 C          63.2993   89.2563   13.3784 C.ar    1  UNL1        0.0382
     19 C          63.8824   89.0938   14.7508 C.ar    1  UNL1        0.1388
     20 C          64.9572   90.0268   15.2242 C.ar    1  UNL1        0.0382
     21 C          65.4490   91.1223   14.3252 C.ar    1  UNL1        0.0176
     22 C          67.5371   96.8557    9.9397 C.3     1  UNL1        0.0948
     23 C          66.8330   95.6664    9.3568 C.2     1  UNL1        0.2262
     24 O          66.6206   95.5726    7.8749 O.2     1  UNL1       -0.2749
     25 N          66.3412   94.5710   10.2558 N.am    1  UNL1       -0.2760
     26 C          66.5535   94.6648   11.7377 C.3     1  UNL1        0.1148
     27 C          66.0618   93.5694   12.6367 C.3     1  UNL1        0.1123
     28 N          65.3577   92.3801   12.0538 N.pl3   1  UNL1       -0.3041
     29 C          65.1453   92.2863   10.5719 C.3     1  UNL1        0.1123
     30 C          65.6371   93.3817    9.6729 C.3     1  UNL1        0.1148
     31 C          61.9189   84.4843   12.4545 C.3     1  UNL1        0.1682
     32 N          61.9232   85.5670   11.4165 N.ar    1  UNL1       -0.3025
     33 C          61.2583   86.9062   11.5366 C.ar    1  UNL1        0.0982
     34 C          61.5173   87.6675   10.2704 C.ar    1  UNL1        0.1193
     35 N          62.3422   86.7988    9.3677 N.ar    1  UNL1       -0.2223
     36 C          62.5931   85.5006   10.0760 C.ar    1  UNL1        0.1788
@<TRIPOS>BOND
     1    22    23    1
     2    23    24    2
     3    23    25   am
     4    25    26    1
     5    26    27    1
     6    27    28    1
     7    28    16    1
     8    16    17   ar
     9    17    18   ar
    10    18    19   ar
    11    19    15    1
    12    15    14    1
    13     1    14    1
    14     1     2    1
    15     2     3    1
    16     3     4    1
    17     4    31    1
    18    31    32    1
    19    32    33   ar
    20    33    34   ar
    21    34    35   ar
    22    35    36   ar
    23     4     6    1
    24     6     7   ar
    25     7     8   ar
    26     8     9   ar
    27     9    10    1
    28     9    11   ar
    29    11    12   ar
    30    12    13    1
    31     4     5    1
    32    19    20   ar
    33    20    21   ar
    34    28    29    1
    35    29    30    1
    36    30    25    1
    37    21    16   ar
    38     5     1    1
    39    36    32   ar
    40    12     6   ar
@<TRIPOS>MOLECULE
*****
 36 40 0 0 0
SMALL
GASTEIGER

@<TRIPOS>ATOM
      1 C          65.8200   92.5203   14.3236 C.3     1  UNL1        0.1909
      2 C          66.4510   93.8805   14.2838 C.3     1  UNL1        0.1783
      3 O          66.5514   94.3031   12.8481 O.3     1  UNL1       -0.3267
      4 C          65.9826   93.2040   12.0005 C.3     1  UNL1        0.2296
      5 O          65.5305   92.1021   12.9124 O.3     1  UNL1       -0.3255
      6 C          66.3309   94.1159   10.8617 C.ar    1  UNL1        0.0409
      7 C          65.6024   95.4163   10.6924 C.ar    1  UNL1        0.0022
      8 C          65.9507   96.3283    9.5535 C.ar    1  UNL1        0.0113
      9 C          67.0274   95.9400    8.5840 C.ar    1  UNL1        0.0585
     10 CL         67.3757   96.8519    7.4451 Cl      1  UNL1       -0.0822
     11 C          67.7558   94.6396    8.7533 C.ar    1  UNL1        0.0226
     12 C          67.4075   93.7277    9.8921 C.ar    1  UNL1        0.0591
     13 CL         68.1359   92.4274   10.0615 Cl      1  UNL1       -0.0824
     14 C          65.5296   91.7188   15.5578 C.3     1  UNL1        0.2374
     15 O          64.1945   91.0558   15.7246 O.3     1  UNL1       -0.4727
     16 C          63.7087   86.6936   14.7320 C.ar    1  UNL1        0.0481
     17 C          63.3907   87.1888   16.1117 C.ar    1  UNL1        0.0176
     18 C          63.5527   88.6428   16.4426 C.ar    1  UNL1        0.0382
     19 C          64.0326   89.6018   15.3937 C.ar    1  UNL1        0.1388
     20 C          64.3506   89.1066   14.0140 C.ar    1  UNL1        0.0382
     21 C          64.1886   87.6526   13.6831 C.ar    1  UNL1        0.0176
     22 C          62.6922   80.4618   12.0152 C.3     1  UNL1        0.0948
     23 C          63.0610   80.8774   13.4084 C.2     1  UNL1        0.2262
     24 O          63.2680   79.8389   14.4708 O.2     1  UNL1       -0.2749
     25 N          63.2229   82.3315   13.7393 N.am    1  UNL1       -0.2760
     26 C          63.0160   83.3699   12.6769 C.3     1  UNL1        0.1148
     27 C          63.1779   84.8240   13.0078 C.3     1  UNL1        0.1123
     28 N          63.5468   85.2396   14.4011 N.pl3   1  UNL1       -0.3041
     29 C          63.7537   84.2011   15.4634 C.3     1  UNL1        0.1123
     30 C          63.5918   82.7470   15.1326 C.3     1  UNL1        0.1148
     31 C          65.4864   92.2955   10.9148 C.3     1  UNL1        0.1682
     32 N          64.1223   91.6800   11.0169 N.ar    1  UNL1       -0.3025
     33 C          63.3102   91.1423    9.8762 C.ar    1  UNL1        0.0982
     34 C          62.0169   90.6242   10.4318 C.ar    1  UNL1        0.1193
     35 N          62.0297   90.8418   11.9159 N.ar    1  UNL1       -0.2223
     36 C          63.3310   91.4943   12.2775 C.ar    1  UNL1        0.1788
@<TRIPOS>BOND
     1    22    23    1
     2    23    24    2
     3    23    25   am
     4    25    26    1
     5    26    27    1
     6    27    28    1
     7    28    16    1
     8    16    17   ar
     9    17    18   ar
    10    18    19   ar
    11    19    15    1
    12    15    14    1
    13     1    14    1
    14     1     2    1
    15     2     3    1
    16     3     4    1
    17     4    31    1
    18    31    32    1
    19    32    33   ar
    20    33    34   ar
    21    34    35   ar
    22    35    36   ar
    23     4     6    1
    24     6     7   ar
    25     7     8   ar
    26     8     9   ar
    27     9    10    1
    28     9    11   ar
    29    11    12   ar
    30    12    13    1
    31     4     5    1
    32    19    20   ar
    33    20    21   ar
    34    28    29    1
    35    29    30    1
    36    30    25    1
    37    21    16   ar
    38     5     1    1
    39    36    32   ar
    40    12     6   ar
@<TRIPOS>MOLECULE
*****
 36 40 0 0 0
SMALL
GASTEIGER

@<TRIPOS>ATOM
      1 C          59.4993   88.0577    7.5402 C.3     1  UNL1        0.1909
      2 C          59.2296   86.5876    7.6674 C.3     1  UNL1        0.1783
      3 O          60.2725   86.0015    8.5723 O.3     1  UNL1       -0.3267
      4 C          61.1867   87.1094    9.0045 C.3     1  UNL1        0.2296
      5 O          60.7089   88.3802    8.3667 O.3     1  UNL1       -0.3255
      6 C          61.8862   86.0228    9.7659 C.ar    1  UNL1        0.0409
      7 C          61.6432   85.8622   11.2375 C.ar    1  UNL1        0.0022
      8 C          62.3427   84.7756   11.9990 C.ar    1  UNL1        0.0113
      9 C          63.2852   83.8495   11.2890 C.ar    1  UNL1        0.0585
     10 CL         63.9847   82.7628   12.0505 Cl      1  UNL1       -0.0822
     11 C          63.5282   84.0101    9.8175 C.ar    1  UNL1        0.0226
     12 C          62.8288   85.0967    9.0560 C.ar    1  UNL1        0.0591
     13 CL         63.0717   85.2573    7.5846 Cl      1  UNL1       -0.0824
     14 C          58.6998   89.0339    6.7291 C.3     1  UNL1        0.2374
     15 O          59.0962   90.4801    6.6919 O.3     1  UNL1       -0.4727
     16 C          60.9832   92.2012    2.9870 C.ar    1  UNL1        0.0481
     17 C          61.7632   91.2627    3.8591 C.ar    1  UNL1        0.0176
     18 C          61.1342   90.6890    5.0941 C.ar    1  UNL1        0.0382
     19 C          59.7252   91.0538    5.4569 C.ar    1  UNL1        0.1388
     20 C          58.9453   91.9923    4.5847 C.ar    1  UNL1        0.0382
     21 C          59.5743   92.5660    3.3498 C.ar    1  UNL1        0.0176
     22 C          62.8760   94.2512   -3.2952 C.3     1  UNL1        0.0948
     23 C          63.4992   94.4962   -1.9530 C.2     1  UNL1        0.2262
     24 O          64.7515   95.3148   -1.8458 O.2     1  UNL1       -0.2749
     25 N          62.8702   93.9224   -0.7180 N.am    1  UNL1       -0.2760
     26 C          61.6180   93.1037   -0.8252 C.3     1  UNL1        0.1148
     27 C          60.9890   92.5300    0.4098 C.3     1  UNL1        0.1123
     28 N          61.6122   92.7750    1.7520 N.pl3   1  UNL1       -0.3041
     29 C          62.8645   93.5936    1.8592 C.3     1  UNL1        0.1123
     30 C          63.4935   94.1674    0.6242 C.3     1  UNL1        0.1148
     31 C          62.2472   87.9902    9.5959 C.3     1  UNL1        0.1682
     32 N          61.9643   88.7686   10.8465 N.ar    1  UNL1       -0.3025
     33 C          62.9897   89.3524   11.7725 C.ar    1  UNL1        0.0982
     34 C          62.2655   90.0444   12.8890 C.ar    1  UNL1        0.1193
     35 N          60.7924   89.8883   12.6529 N.ar    1  UNL1       -0.2223
     36 C          60.6063   89.0998   11.3906 C.ar    1  UNL1        0.1788
@<TRIPOS>BOND
     1    22    23    1
     2    23    24    2
     3    23    25   am
     4    25    26    1
     5    26    27    1
     6    27    28    1
     7    28    16    1
     8    16    17   ar
     9    17    18   ar
    10    18    19   ar
    11    19    15    1
    12    15    14    1
    13     1    14    1
    14     1     2    1
    15     2     3    1
    16     3     4    1
    17     4    31    1
    18    31    32    1
    19    32    33   ar
    20    33    34   ar
    21    34    35   ar
    22    35    36   ar
    23     4     6    1
    24     6     7   ar
    25     7     8   ar
    26     8     9   ar
    27     9    10    1
    28     9    11   ar
    29    11    12   ar
    30    12    13    1
    31     4     5    1
    32    19    20   ar
    33    20    21   ar
    34    28    29    1
    35    29    30    1
    36    30    25    1
    37    21    16   ar
    38     5     1    1
    39    36    32   ar
    40    12     6   ar
@<TRIPOS>MOLECULE
*****
 36 40 0 0 0
SMALL
GASTEIGER

@<TRIPOS>ATOM
      1 C          64.3548   91.9805   11.0631 C.3     1  UNL1        0.1909
      2 C          65.1442   93.2560   11.0555 C.3     1  UNL1        0.1783
      3 O          66.0952   93.2195   12.2150 O.3     1  UNL1       -0.3267
      4 C          65.8935   91.9214   12.9392 C.3     1  UNL1        0.2296
      5 O          64.8179   91.1557   12.2273 O.3     1  UNL1       -0.3255
      6 C          66.9741   92.4384   13.8419 C.ar    1  UNL1        0.0409
      7 C          66.6185   93.2783   15.0328 C.ar    1  UNL1        0.0022
      8 C          67.6991   93.7953   15.9356 C.ar    1  UNL1        0.0113
      9 C          69.1353   93.4724   15.6475 C.ar    1  UNL1        0.0585
     10 CL         70.2160   93.9894   16.5502 Cl      1  UNL1       -0.0822
     11 C          69.4910   92.6325   14.4565 C.ar    1  UNL1        0.0226
     12 C          68.4104   92.1155   13.5539 C.ar    1  UNL1        0.0591
     13 CL         68.7659   91.2756   12.3630 Cl      1  UNL1       -0.0824
     14 C          63.2894   91.5971   10.0793 C.3     1  UNL1        0.2374
     15 O          62.0799   90.8396   10.5408 O.3     1  UNL1       -0.4727
     16 C          62.4303   86.4867   11.6270 C.ar    1  UNL1        0.0481
     17 C          61.6061   86.9005   10.4441 C.ar    1  UNL1        0.0176
     18 C          61.4893   88.3515   10.0820 C.ar    1  UNL1        0.0382
     19 C          62.1967   89.3886   10.9029 C.ar    1  UNL1        0.1388
     20 C          63.0209   88.9748   12.0858 C.ar    1  UNL1        0.0382
     21 C          63.1377   87.5239   12.4479 C.ar    1  UNL1        0.0176
     22 C          62.8536   79.6362   12.0019 C.3     1  UNL1        0.0948
     23 C          62.8975   80.6829   13.0753 C.2     1  UNL1        0.2262
     24 O          63.0583   80.2787   14.5109 O.2     1  UNL1       -0.2749
     25 N          62.7807   82.1339   12.7133 N.am    1  UNL1       -0.2760
     26 C          62.6200   82.5381   11.2778 C.3     1  UNL1        0.1148
     27 C          62.5032   83.9890   10.9157 C.3     1  UNL1        0.1123
     28 N          62.5471   85.0358   11.9891 N.pl3   1  UNL1       -0.3041
     29 C          62.7078   84.6316   13.4246 C.3     1  UNL1        0.1123
     30 C          62.8247   83.1806   13.7867 C.3     1  UNL1        0.1148
     31 C          65.9177   90.7314   13.8521 C.3     1  UNL1        0.1682
     32 N          64.8477   90.5598   14.8892 N.ar    1  UNL1       -0.3025
     33 C          64.1499   89.2771   15.2321 C.ar    1  UNL1        0.0982
     34 C          63.1586   89.5653   16.3204 C.ar    1  UNL1        0.1193
     35 N          63.2439   91.0261   16.6501 N.ar    1  UNL1       -0.2223
     36 C          64.2879   91.6407   15.7656 C.ar    1  UNL1        0.1788
@<TRIPOS>BOND
     1    22    23    1
     2    23    24    2
     3    23    25   am
     4    25    26    1
     5    26    27    1
     6    27    28    1
     7    28    16    1
     8    16    17   ar
     9    17    18   ar
    10    18    19   ar
    11    19    15    1
    12    15    14    1
    13     1    14    1
    14     1     2    1
    15     2     3    1
    16     3     4    1
    17     4    31    1
    18    31    32    1
    19    32    33   ar
    20    33    34   ar
    21    34    35   ar
    22    35    36   ar
    23     4     6    1
    24     6     7   ar
    25     7     8   ar
    26     8     9   ar
    27     9    10    1
    28     9    11   ar
    29    11    12   ar
    30    12    13    1
    31     4     5    1
    32    19    20   ar
    33    20    21   ar
    34    28    29    1
    35    29    30    1
    36    30    25    1
    37    21    16   ar
    38     5     1    1
    39    36    32   ar
    40    12     6   ar
@<TRIPOS>MOLECULE
*****
 36 40 0 0 0
SMALL
GASTEIGER

@<TRIPOS>ATOM
      1 C          64.1554   91.7900   10.9768 C.3     1  UNL1        0.1909
      2 C          64.4793   90.8575   12.1062 C.3     1  UNL1        0.1783
      3 O          65.5779   91.4769   12.9183 O.3     1  UNL1       -0.3267
      4 C          65.9329   92.7923   12.2908 C.3     1  UNL1        0.2296
      5 O          65.0537   92.9859   11.0909 O.3     1  UNL1       -0.3255
      6 C          66.9297   92.8775   13.4083 C.ar    1  UNL1        0.0409
      7 C          66.6161   93.6847   14.6332 C.ar    1  UNL1        0.0022
      8 C          67.6131   93.7699   15.7508 C.ar    1  UNL1        0.0113
      9 C          68.9235   93.0480   15.6435 C.ar    1  UNL1        0.0585
     10 CL         69.9204   93.1332   16.7610 Cl      1  UNL1       -0.0822
     11 C          69.2371   92.2408   14.4186 C.ar    1  UNL1        0.0226
     12 C          68.2403   92.1556   13.3011 C.ar    1  UNL1        0.0591
     13 CL         68.5538   91.3486   12.0762 Cl      1  UNL1       -0.0824
     14 C          63.1156   91.5661    9.9191 C.3     1  UNL1        0.2374
     15 O          61.9007   90.7411   10.2244 O.3     1  UNL1       -0.4727
     16 C          62.3537   86.4291   11.4293 C.ar    1  UNL1        0.0481
     17 C          62.8621   87.5165   12.3287 C.ar    1  UNL1        0.0176
     18 C          62.7111   88.9539   11.9270 C.ar    1  UNL1        0.0382
     19 C          62.0517   89.3038   10.6260 C.ar    1  UNL1        0.1388
     20 C          61.5433   88.2163    9.7266 C.ar    1  UNL1        0.0382
     21 C          61.6943   86.7790   10.1282 C.ar    1  UNL1        0.0176
     22 C          62.8827   79.5993   11.9981 C.3     1  UNL1        0.0948
     23 C          62.9578   80.6798   13.0357 C.2     1  UNL1        0.2262
     24 O          63.1839   80.3230   14.4750 O.2     1  UNL1       -0.2749
     25 N          62.8068   82.1171   12.6341 N.am    1  UNL1       -0.2760
     26 C          62.5806   82.4739   11.1948 C.3     1  UNL1        0.1148
     27 C          62.4296   83.9112   10.7932 C.3     1  UNL1        0.1123
     28 N          62.5047   84.9918   11.8309 N.pl3   1  UNL1       -0.3041
     29 C          62.7309   84.6350   13.2701 C.3     1  UNL1        0.1123
     30 C          62.8819   83.1977   13.6717 C.3     1  UNL1        0.1148
     31 C          66.4963   94.1256   11.8970 C.3     1  UNL1        0.1682
     32 N          66.8602   94.3932   10.4666 N.ar    1  UNL1       -0.3025
     33 C          66.5126   95.6246    9.6839 C.ar    1  UNL1        0.0982
     34 C          67.0732   95.4687    8.3014 C.ar    1  UNL1        0.1193
     35 N          67.7673   94.1409    8.2296 N.ar    1  UNL1       -0.2223
     36 C          67.6356   93.4762    9.5678 C.ar    1  UNL1        0.1788
@<TRIPOS>BOND
     1    22    23    1
     2    23    24    2
     3    23    25   am
     4    25    26    1
     5    26    27    1
     6    27    28    1
     7    28    16    1
     8    16    17   ar
     9    17    18   ar
    10    18    19   ar
    11    19    15    1
    12    15    14    1
    13     1    14    1
    14     1     2    1
    15     2     3    1
    16     3     4    1
    17     4    31    1
    18    31    32    1
    19    32    33   ar
    20    33    34   ar
    21    34    35   ar
    22    35    36   ar
    23     4     6    1
    24     6     7   ar
    25     7     8   ar
    26     8     9   ar
    27     9    10    1
    28     9    11   ar
    29    11    12   ar
    30    12    13    1
    31     4     5    1
    32    19    20   ar
    33    20    21   ar
    34    28    29    1
    35    29    30    1
    36    30    25    1
    37    21    16   ar
    38     5     1    1
    39    36    32   ar
    40    12     6   ar
@<TRIPOS>MOLECULE
*****
 36 40 0 0 0
SMALL
GASTEIGER

@<TRIPOS>ATOM
      1 C          60.8303   87.6730    9.7877 C.3     1  UNL1        0.1909
      2 C          60.5598   87.2800   11.2098 C.3     1  UNL1        0.1783
      3 O          61.3572   86.0453   11.5092 O.3     1  UNL1       -0.3267
      4 C          62.1206   85.6752   10.2722 C.3     1  UNL1        0.2296
      5 O          61.7950   86.6812    9.2082 O.3     1  UNL1       -0.3255
      6 C          62.6280   84.5425   11.1142 C.ar    1  UNL1        0.0409
      7 C          62.4511   83.1264   10.6518 C.ar    1  UNL1        0.0022
      8 C          62.9585   81.9936   11.4940 C.ar    1  UNL1        0.0113
      9 C          63.6428   82.2767   12.7985 C.ar    1  UNL1        0.0585
     10 CL         64.1502   81.1438   13.6406 Cl      1  UNL1       -0.0822
     11 C          63.8196   83.6927   13.2609 C.ar    1  UNL1        0.0226
     12 C          63.3123   84.8255   12.4188 C.ar    1  UNL1        0.0591
     13 CL         63.4891   86.2414   12.8811 Cl      1  UNL1       -0.0824
     14 C          60.2399   88.8510    9.0710 C.3     1  UNL1        0.2374
     15 O          60.3252   90.2192    9.6798 O.3     1  UNL1       -0.4727
     16 C          63.8692   91.3355   12.2183 C.ar    1  UNL1        0.0481
     17 C          63.8965   91.5874   10.7399 C.ar    1  UNL1        0.0176
     18 C          62.7151   91.2154    9.8937 C.ar    1  UNL1        0.0382
     19 C          61.5065   90.5913   10.5259 C.ar    1  UNL1        0.1388
     20 C          61.4793   90.3393   12.0043 C.ar    1  UNL1        0.0382
     21 C          62.6606   90.7114   12.8505 C.ar    1  UNL1        0.0176
     22 C          69.0090   91.9406   16.7423 C.3     1  UNL1        0.0948
     23 C          68.5946   92.8238   15.6029 C.2     1  UNL1        0.2262
     24 O          69.3615   94.0790   15.3097 O.2     1  UNL1       -0.2749
     25 N          67.4132   92.4517   14.7568 N.am    1  UNL1       -0.2760
     26 C          66.6463   91.1964   15.0500 C.3     1  UNL1        0.1148
     27 C          65.4649   90.8243   14.2038 C.3     1  UNL1        0.1123
     28 N          65.0505   91.7075   13.0644 N.pl3   1  UNL1       -0.3041
     29 C          65.8175   92.9628   12.7712 C.3     1  UNL1        0.1123
     30 C          66.9988   93.3349   13.6174 C.3     1  UNL1        0.1148
     31 C          62.9901   85.0684    9.2111 C.3     1  UNL1        0.1682
     32 N          62.4424   84.8376    7.8338 N.ar    1  UNL1       -0.3025
     33 C          63.2464   84.5317    6.6051 C.ar    1  UNL1        0.0982
     34 C          62.2954   84.3773    5.4555 C.ar    1  UNL1        0.1193
     35 N          60.9036   84.5878    5.9737 N.ar    1  UNL1       -0.2223
     36 C          60.9945   84.8723    7.4437 C.ar    1  UNL1        0.1788
@<TRIPOS>BOND
     1    22    23    1
     2    23    24    2
     3    23    25   am
     4    25    26    1
     5    26    27    1
     6    27    28    1
     7    28    16    1
     8    16    17   ar
     9    17    18   ar
    10    18    19   ar
    11    19    15    1
    12    15    14    1
    13     1    14    1
    14     1     2    1
    15     2     3    1
    16     3     4    1
    17     4    31    1
    18    31    32    1
    19    32    33   ar
    20    33    34   ar
    21    34    35   ar
    22    35    36   ar
    23     4     6    1
    24     6     7   ar
    25     7     8   ar
    26     8     9   ar
    27     9    10    1
    28     9    11   ar
    29    11    12   ar
    30    12    13    1
    31     4     5    1
    32    19    20   ar
    33    20    21   ar
    34    28    29    1
    35    29    30    1
    36    30    25    1
    37    21    16   ar
    38     5     1    1
    39    36    32   ar
    40    12     6   ar
@<TRIPOS>MOLECULE
*****
 36 40 0 0 0
SMALL
GASTEIGER

@<TRIPOS>ATOM
      1 C          59.8759   88.6417    8.0873 C.3     1  UNL1        0.1909
      2 C          59.7077   89.2333    9.4554 C.3     1  UNL1        0.1783
      3 O          60.7013   88.5786   10.3688 O.3     1  UNL1       -0.3267
      4 C          61.4835   87.5825    9.5652 C.3     1  UNL1        0.2296
      5 O          60.9735   87.6214    8.1551 O.3     1  UNL1       -0.3255
      6 C          62.1879   87.3240   10.8640 C.ar    1  UNL1        0.0409
      7 C          62.2079   85.9407   11.4440 C.ar    1  UNL1        0.0022
      8 C          62.9123   85.6822   12.7429 C.ar    1  UNL1        0.0113
      9 C          63.5966   86.8069   13.4617 C.ar    1  UNL1        0.0585
     10 CL         64.3010   86.5483   14.7606 Cl      1  UNL1       -0.0822
     11 C          63.5766   88.1901   12.8818 C.ar    1  UNL1        0.0226
     12 C          62.8723   88.4486   11.5830 C.ar    1  UNL1        0.0591
     13 CL         62.8522   89.8318   11.0030 Cl      1  UNL1       -0.0824
     14 C          59.0855   89.0064    6.8657 C.3     1  UNL1        0.2374
     15 O          58.8297   90.4482    6.5406 O.3     1  UNL1       -0.4727
     16 C          60.8770   92.3578    3.0175 C.ar    1  UNL1        0.0481
     17 C          59.4320   92.6500    3.2942 C.ar    1  UNL1        0.0176
     18 C          58.7496   92.0135    4.4686 C.ar    1  UNL1        0.0382
     19 C          59.5121   91.0847    5.3663 C.ar    1  UNL1        0.1388
     20 C          60.9571   90.7925    5.0896 C.ar    1  UNL1        0.0382
     21 C          61.6395   91.4290    3.9152 C.ar    1  UNL1        0.0176
     22 C          64.9389   95.5699   -1.5027 C.3     1  UNL1        0.0948
     23 C          63.6067   94.9039   -1.6799 C.2     1  UNL1        0.2262
     24 O          62.9568   94.8744   -3.0315 O.2     1  UNL1       -0.2749
     25 N          62.9242   94.2673   -0.5056 N.am    1  UNL1       -0.2760
     26 C          63.5741   94.2968    0.8460 C.3     1  UNL1        0.1148
     27 C          62.8917   93.6603    2.0204 C.3     1  UNL1        0.1123
     28 N          61.5594   92.9943    1.8432 N.pl3   1  UNL1       -0.3041
     29 C          60.9095   92.9648    0.4916 C.3     1  UNL1        0.1123
     30 C          61.5920   93.6013   -0.6828 C.3     1  UNL1        0.1148
     31 C          62.4131   86.5323    9.0331 C.3     1  UNL1        0.1682
     32 N          61.9821   85.6566    7.8941 N.ar    1  UNL1       -0.3025
     33 C          62.8910   84.9202    6.9552 C.ar    1  UNL1        0.0982
     34 C          62.0371   84.1720    5.9749 C.ar    1  UNL1        0.1193
     35 N          60.6004   84.4460    6.3079 N.ar    1  UNL1       -0.2223
     36 C          60.5664   85.3635    7.4941 C.ar    1  UNL1        0.1788
@<TRIPOS>BOND
     1    22    23    1
     2    23    24    2
     3    23    25   am
     4    25    26    1
     5    26    27    1
     6    27    28    1
     7    28    16    1
     8    16    17   ar
     9    17    18   ar
    10    18    19   ar
    11    19    15    1
    12    15    14    1
    13     1    14    1
    14     1     2    1
    15     2     3    1
    16     3     4    1
    17     4    31    1
    18    31    32    1
    19    32    33   ar
    20    33    34   ar
    21    34    35   ar
    22    35    36   ar
    23     4     6    1
    24     6     7   ar
    25     7     8   ar
    26     8     9   ar
    27     9    10    1
    28     9    11   ar
    29    11    12   ar
    30    12    13    1
    31     4     5    1
    32    19    20   ar
    33    20    21   ar
    34    28    29    1
    35    29    30    1
    36    30    25    1
    37    21    16   ar
    38     5     1    1
    39    36    32   ar
    40    12     6   ar
@<TRIPOS>MOLECULE
*****
 36 40 0 0 0
SMALL
GASTEIGER

@<TRIPOS>ATOM
      1 C          61.8006   87.0735   10.3030 C.3     1  UNL1        0.1909
      2 C          60.8717   85.9178   10.0764 C.3     1  UNL1        0.1783
      3 O          61.3939   84.7445   10.8514 O.3     1  UNL1       -0.3267
      4 C          62.6455   85.1750   11.5570 C.3     1  UNL1        0.2296
      5 O          62.8970   86.6145   11.2181 O.3     1  UNL1       -0.3255
      6 C          62.6563   83.7640   12.0656 C.ar    1  UNL1        0.0409
      7 C          61.9756   83.4279   13.3594 C.ar    1  UNL1        0.0022
      8 C          61.9863   82.0168   13.8680 C.ar    1  UNL1        0.0113
      9 C          62.6778   80.9418   13.0830 C.ar    1  UNL1        0.0585
     10 CL         62.6885   79.5307   13.5916 Cl      1  UNL1       -0.0822
     11 C          63.3585   81.2779   11.7892 C.ar    1  UNL1        0.0226
     12 C          63.3477   82.6890   11.2806 C.ar    1  UNL1        0.0591
     13 CL         64.0284   83.0251    9.9869 Cl      1  UNL1       -0.0824
     14 C          61.6582   88.4472    9.7174 C.3     1  UNL1        0.2374
     15 O          61.3919   89.6204   10.6132 O.3     1  UNL1       -0.4727
     16 C          64.7564   91.4666   12.9630 C.ar    1  UNL1        0.0481
     17 C          64.6132   91.7623   11.4995 C.ar    1  UNL1        0.0176
     18 C          63.4917   91.1469   10.7162 C.ar    1  UNL1        0.0382
     19 C          62.5134   90.2358   11.3965 C.ar    1  UNL1        0.1388
     20 C          62.6566   89.9402   12.8600 C.ar    1  UNL1        0.0382
     21 C          63.7781   90.5556   13.6433 C.ar    1  UNL1        0.0176
     22 C          70.1447   93.0604   16.9222 C.3     1  UNL1        0.0948
     23 C          69.2423   93.9283   16.0962 C.2     1  UNL1        0.2262
     24 O          69.4614   95.4115   16.0534 O.2     1  UNL1       -0.2749
     25 N          68.1208   93.3129   15.3129 N.am    1  UNL1       -0.2760
     26 C          67.9017   91.8296   15.3557 C.3     1  UNL1        0.1148
     27 C          66.7803   91.2142   14.5724 C.3     1  UNL1        0.1123
     28 N          65.8779   92.0820   13.7463 N.pl3   1  UNL1       -0.3041
     29 C          66.0969   93.5653   13.7035 C.3     1  UNL1        0.1123
     30 C          67.2184   94.1807   14.4868 C.3     1  UNL1        0.1148
     31 C          63.8995   85.3107   12.3690 C.3     1  UNL1        0.1682
     32 N          63.8299   85.8246   13.7764 N.ar    1  UNL1       -0.3025
     33 C          63.7185   84.9877   15.0161 C.ar    1  UNL1        0.0982
     34 C          63.6791   85.9116   16.1971 C.ar    1  UNL1        0.1193
     35 N          63.7662   87.3196   15.6873 N.ar    1  UNL1       -0.2223
     36 C          63.8593   87.2658   14.1912 C.ar    1  UNL1        0.1788
@<TRIPOS>BOND
     1    22    23    1
     2    23    24    2
     3    23    25   am
     4    25    26    1
     5    26    27    1
     6    27    28    1
     7    28    16    1
     8    16    17   ar
     9    17    18   ar
    10    18    19   ar
    11    19    15    1
    12    15    14    1
    13     1    14    1
    14     1     2    1
    15     2     3    1
    16     3     4    1
    17     4    31    1
    18    31    32    1
    19    32    33   ar
    20    33    34   ar
    21    34    35   ar
    22    35    36   ar
    23     4     6    1
    24     6     7   ar
    25     7     8   ar
    26     8     9   ar
    27     9    10    1
    28     9    11   ar
    29    11    12   ar
    30    12    13    1
    31     4     5    1
    32    19    20   ar
    33    20    21   ar
    34    28    29    1
    35    29    30    1
    36    30    25    1
    37    21    16   ar
    38     5     1    1
    39    36    32   ar
    40    12     6   ar
@<TRIPOS>MOLECULE
*****
 36 40 0 0 0
SMALL
GASTEIGER

@<TRIPOS>ATOM
      1 C          71.0857   75.6584   14.8990 C.3     1  UNL1        0.1909
      2 C          70.1042   74.8427   15.6872 C.3     1  UNL1        0.1783
      3 O          70.6585   73.4556   15.8243 O.3     1  UNL1       -0.3267
      4 C          71.9827   73.4140   15.1208 C.3     1  UNL1        0.2296
      5 O          72.2467   74.7754   14.5489 O.3     1  UNL1       -0.3255
      6 C          71.9960   71.9814   15.5650 C.ar    1  UNL1        0.0409
      7 C          72.8754   71.5575   16.7039 C.ar    1  UNL1        0.0022
      8 C          72.8888   70.1248   17.1481 C.ar    1  UNL1        0.0113
      9 C          72.0228   69.1161   16.4535 C.ar    1  UNL1        0.0585
     10 CL         72.0362   67.6835   16.8977 Cl      1  UNL1       -0.0822
     11 C          71.1434   69.5400   15.3145 C.ar    1  UNL1        0.0226
     12 C          71.1301   70.9726   14.8704 C.ar    1  UNL1        0.0591
     13 CL         70.2508   71.3966   13.7315 Cl      1  UNL1       -0.0824
     14 C          70.9331   77.1033   14.5263 C.3     1  UNL1        0.2374
     15 O          72.1440   77.9247   14.1966 O.3     1  UNL1       -0.4727
     16 C          72.6465   79.6339   10.0643 C.ar    1  UNL1        0.0481
     17 C          72.9893   78.1978   10.3287 C.ar    1  UNL1        0.0176
     18 C          72.8218   77.6280   11.7061 C.ar    1  UNL1        0.0382
     19 C          72.3115   78.4945   12.8192 C.ar    1  UNL1        0.1388
     20 C          71.9688   79.9306   12.5548 C.ar    1  UNL1        0.0382
     21 C          72.1363   80.5003   11.1773 C.ar    1  UNL1        0.0176
     22 C          73.6324   81.0069    3.4015 C.3     1  UNL1        0.0948
     23 C          73.3165   81.9128    4.5545 C.2     1  UNL1        0.2262
     24 O          73.1680   83.3885    4.3301 O.2     1  UNL1       -0.2749
     25 N          73.1490   81.3431    5.9319 N.am    1  UNL1       -0.2760
     26 C          73.2975   79.8675    6.1564 C.3     1  UNL1        0.1148
     27 C          73.1300   79.2977    7.5338 C.3     1  UNL1        0.1123
     28 N          72.8140   80.2036    8.6868 N.pl3   1  UNL1       -0.3041
     29 C          72.6655   81.6793    8.4624 C.3     1  UNL1        0.1123
     30 C          72.8330   82.2490    7.0849 C.3     1  UNL1        0.1148
     31 C          73.3097   73.0730   14.5101 C.3     1  UNL1        0.1682
     32 N          73.3912   72.6781   13.0654 N.ar    1  UNL1       -0.3025
     33 C          73.2511   73.5996   11.8902 C.ar    1  UNL1        0.0982
     34 C          73.4005   72.7833   10.6407 C.ar    1  UNL1        0.1193
     35 N          73.6328   71.3572   11.0436 N.ar    1  UNL1       -0.2223
     36 C          73.6271   71.2922   12.5422 C.ar    1  UNL1        0.1788
@<TRIPOS>BOND
     1    22    23    1
     2    23    24    2
     3    23    25   am
     4    25    26    1
     5    26    27    1
     6    27    28    1
     7    28    16    1
     8    16    17   ar
     9    17    18   ar
    10    18    19   ar
    11    19    15    1
    12    15    14    1
    13     1    14    1
    14     1     2    1
    15     2     3    1
    16     3     4    1
    17     4    31    1
    18    31    32    1
    19    32    33   ar
    20    33    34   ar
    21    34    35   ar
    22    35    36   ar
    23     4     6    1
    24     6     7   ar
    25     7     8   ar
    26     8     9   ar
    27     9    10    1
    28     9    11   ar
    29    11    12   ar
    30    12    13    1
    31     4     5    1
    32    19    20   ar
    33    20    21   ar
    34    28    29    1
    35    29    30    1
    36    30    25    1
    37    21    16   ar
    38     5     1    1
    39    36    32   ar
    40    12     6   ar
