@<TRIPOS>MOLECULE
*****
 36 39 0 0 0
SMALL
GASTEIGER

@<TRIPOS>ATOM
      1 C          66.0069   92.8589   14.2308 C.3     1  UNL1        0.0821
      2 C          66.5048   94.0114   13.4100 C.3     1  UNL1        0.0473
      3 C          66.1152   94.1275   11.9661 C.3     1  UNL1        0.1183
      4 C          65.2278   93.0911   11.3431 C.3     1  UNL1        0.0511
      5 C          64.7299   91.9386   12.1639 C.3     1  UNL1        0.1256
      6 N          65.1195   91.8224   13.6077 N.3     1  UNL1       -0.1544
      7 S          64.6216   90.6698   14.4285 S.O2    1  UNL1        0.0633
      8 O          63.3393   91.4052   14.6835 O.2     1  UNL1       -0.1528
      9 O          65.9038   89.9344   14.1736 O.2     1  UNL1       -0.1528
     10 C          64.1237   89.5173   15.2493 C.ar    1  UNL1        0.1223
     11 C          63.2525   89.7684   16.4442 C.ar    1  UNL1        0.0208
     12 C          62.7546   88.6158   17.2650 C.ar    1  UNL1        0.0128
     13 C          63.1280   87.2120   16.8908 C.ar    1  UNL1        0.0578
     14 CL         62.6301   86.0595   17.7116 Cl      1  UNL1       -0.0822
     15 C          63.9992   86.9609   15.6959 C.ar    1  UNL1        0.0128
     16 C          64.4971   88.1134   14.8751 C.ar    1  UNL1        0.0208
     17 C          67.8113   92.4098   16.0454 C.3     1  UNL1        0.0015
     18 C          66.3965   92.7427   15.6747 C.3     1  UNL1        0.0178
     19 O          66.6132   95.2801   11.1453 O.3     1  UNL1       -0.3535
     20 C          67.2172   95.0334    9.7947 C.3     1  UNL1        0.1740
     21 C          63.8425   90.9021   11.5408 C.3     1  UNL1        0.2277
     22 O          62.3515   91.0399   11.6296 O.3     1  UNL1       -0.4330
     23 C          61.4640   90.0122   10.9921 C.2     1  UNL1        0.4049
     24 O          60.2833   90.4446   10.1741 O.2     1  UNL1       -0.2262
     25 N          61.7572   88.5523   11.1725 N.am    1  UNL1       -0.2459
     26 C          62.9379   88.1200   11.9905 C.3     1  UNL1        0.0981
     27 C          63.2311   86.6601   12.1710 C.3     1  UNL1        0.0376
     28 C          62.3435   85.6324   11.5335 C.3     1  UNL1        0.0609
     29 C          61.1628   86.0647   10.7155 C.3     1  UNL1        0.0376
     30 C          60.8697   87.5248   10.5351 C.3     1  UNL1        0.0981
     31 N          62.6367   84.1725   11.7140 N.3     1  UNL1       -0.2738
     32 C          63.1693   83.3670   10.5661 C.3     1  UNL1        0.0720
     33 C          63.4625   81.9070   10.7466 C.3     1  UNL1        0.0174
     34 C          63.2231   81.2526   12.0750 C.3     1  UNL1        0.0029
     35 C          62.6905   82.0581   13.2228 C.3     1  UNL1        0.0174
     36 C          62.3973   83.5181   13.0422 C.3     1  UNL1        0.0720
@<TRIPOS>BOND
     1    17    18    1
     2     1    18    1
     3     1     2    1
     4     2     3    1
     5     3    19    1
     6    19    20    1
     7     3     4    1
     8     4     5    1
     9     5    21    1
    10    21    22    1
    11    22    23    1
    12    23    24    2
    13    23    25   am
    14    25    26    1
    15    26    27    1
    16    27    28    1
    17    28    31    1
    18    31    32    1
    19    32    33    1
    20    33    34    1
    21    34    35    1
    22    35    36    1
    23    28    29    1
    24    29    30    1
    25     5     6    1
    26     6     7    1
    27     7     8    2
    28     7     9    2
    29     7    10    1
    30    10    11   ar
    31    11    12   ar
    32    12    13   ar
    33    13    14    1
    34    13    15   ar
    35    15    16   ar
    36     6     1    1
    37    16    10   ar
    38    30    25    1
    39    36    31    1
@<TRIPOS>MOLECULE
*****
 36 39 0 0 0
SMALL
GASTEIGER

@<TRIPOS>ATOM
      1 C          64.9747   91.8274   12.6097 C.3     1  UNL1        0.0821
      2 C          65.9033   92.6205   13.4805 C.3     1  UNL1        0.0473
      3 C          65.9578   92.3553   14.9559 C.3     1  UNL1        0.1183
      4 C          65.0836   91.2969   15.5604 C.3     1  UNL1        0.0511
      5 C          64.1550   90.5037   14.6895 C.3     1  UNL1        0.1256
      6 N          64.1005   90.7689   13.2142 N.3     1  UNL1       -0.1544
      7 S          63.1718   89.9757   12.3433 S.O2    1  UNL1        0.0633
      8 O          62.4093   91.2257   12.0178 O.2     1  UNL1       -0.1528
      9 O          63.9343   88.7257   12.6689 O.2     1  UNL1       -0.1528
     10 C          62.2431   89.1824   11.4725 C.ar    1  UNL1        0.1223
     11 C          62.4255   87.6998   11.3367 C.ar    1  UNL1        0.0208
     12 C          61.4968   86.9065   10.4659 C.ar    1  UNL1        0.0128
     13 C          60.3858   87.5959    9.7309 C.ar    1  UNL1        0.0578
     14 CL         59.4572   86.8027    8.8601 Cl      1  UNL1       -0.0822
     15 C          60.2034   89.0786    9.8667 C.ar    1  UNL1        0.0128
     16 C          61.1321   89.8718   10.7375 C.ar    1  UNL1        0.0208
     17 C          65.8957   93.0437   10.5068 C.3     1  UNL1        0.0015
     18 C          64.9202   92.0926   11.1343 C.3     1  UNL1        0.0178
     19 O          66.8865   93.1485   15.8268 O.3     1  UNL1       -0.3535
     20 C          68.3686   92.9393   15.7286 C.3     1  UNL1        0.1740
     21 C          63.2807   89.4452   15.2940 C.3     1  UNL1        0.2277
     22 O          63.8522   88.4779   16.2879 O.3     1  UNL1       -0.4330
     23 C          63.0902   87.2379   16.6511 C.2     1  UNL1        0.4049
     24 O          62.3390   87.1721   17.9478 O.2     1  UNL1       -0.2262
     25 N          63.0795   86.0638   15.7178 N.am    1  UNL1       -0.2459
     26 C          63.8307   86.1295   14.4211 C.3     1  UNL1        0.0981
     27 C          63.8201   84.9554   13.4877 C.3     1  UNL1        0.0376
     28 C          63.0581   83.7154   13.8510 C.3     1  UNL1        0.0609
     29 C          62.3069   83.6496   15.1476 C.3     1  UNL1        0.0376
     30 C          62.3176   84.8238   16.0810 C.3     1  UNL1        0.0981
     31 N          63.0474   82.5413   12.9176 N.3     1  UNL1       -0.2738
     32 C          62.6478   81.1861   13.4215 C.3     1  UNL1        0.0720
     33 C          62.6371   80.0120   12.4882 C.3     1  UNL1        0.0174
     34 C          63.0260   80.1930   11.0507 C.3     1  UNL1        0.0029
     35 C          63.4256   81.5481   10.5468 C.3     1  UNL1        0.0174
     36 C          63.4363   82.7223   11.4803 C.3     1  UNL1        0.0720
@<TRIPOS>BOND
     1    17    18    1
     2     1    18    1
     3     1     2    1
     4     2     3    1
     5     3    19    1
     6    19    20    1
     7     3     4    1
     8     4     5    1
     9     5    21    1
    10    21    22    1
    11    22    23    1
    12    23    24    2
    13    23    25   am
    14    25    26    1
    15    26    27    1
    16    27    28    1
    17    28    31    1
    18    31    32    1
    19    32    33    1
    20    33    34    1
    21    34    35    1
    22    35    36    1
    23    28    29    1
    24    29    30    1
    25     5     6    1
    26     6     7    1
    27     7     8    2
    28     7     9    2
    29     7    10    1
    30    10    11   ar
    31    11    12   ar
    32    12    13   ar
    33    13    14    1
    34    13    15   ar
    35    15    16   ar
    36     6     1    1
    37    16    10   ar
    38    30    25    1
    39    36    31    1
@<TRIPOS>MOLECULE
*****
 36 39 0 0 0
SMALL
GASTEIGER

@<TRIPOS>ATOM
      1 C          60.5419   86.5433    8.1549 C.3     1  UNL1        0.0821
      2 C          59.8104   87.6760    7.4977 C.3     1  UNL1        0.0473
      3 C          59.9096   89.0616    8.0636 C.3     1  UNL1        0.1183
      4 C          60.7403   89.3145    9.2867 C.3     1  UNL1        0.0511
      5 C          61.4718   88.1819    9.9439 C.3     1  UNL1        0.1256
      6 N          61.3726   86.7962    9.3780 N.3     1  UNL1       -0.1544
      7 S          62.1041   85.6635   10.0352 S.O2    1  UNL1        0.0633
      8 O          61.0793   85.6370   11.1302 O.2     1  UNL1       -0.1528
      9 O          63.1289   85.6901    8.9402 O.2     1  UNL1       -0.1528
     10 C          62.8357   84.5309   10.6923 C.ar    1  UNL1        0.1223
     11 C          63.6164   83.5583    9.8589 C.ar    1  UNL1        0.0208
     12 C          64.3479   82.4256   10.5161 C.ar    1  UNL1        0.0128
     13 C          64.2988   82.2655   12.0067 C.ar    1  UNL1        0.0578
     14 CL         65.0303   81.1329   12.6639 Cl      1  UNL1       -0.0822
     15 C          63.5181   83.2381   12.8402 C.ar    1  UNL1        0.0128
     16 C          62.7865   84.3708   12.1830 C.ar    1  UNL1        0.0208
     17 C          61.3483   84.7383    6.4692 C.3     1  UNL1        0.0015
     18 C          60.4427   85.1577    7.5890 C.3     1  UNL1        0.0178
     19 O          59.1781   90.1943    7.4064 O.3     1  UNL1       -0.3535
     20 C          59.0621   90.2454    5.9118 C.3     1  UNL1        0.1740
     21 C          62.3025   88.4347   11.1670 C.3     1  UNL1        0.2277
     22 O          61.8078   89.3712   12.2292 O.3     1  UNL1       -0.4330
     23 C          62.7846   90.1812   13.0291 C.2     1  UNL1        0.4049
     24 O          62.9171   89.9521   14.5056 O.2     1  UNL1       -0.2262
     25 N          63.6288   91.2202   12.3526 N.am    1  UNL1       -0.2459
     26 C          63.4963   91.4493   10.8761 C.3     1  UNL1        0.0981
     27 C          64.3405   92.4883   10.1996 C.3     1  UNL1        0.0376
     28 C          65.3173   93.2983   10.9996 C.3     1  UNL1        0.0609
     29 C          65.4498   93.0693   12.4761 C.3     1  UNL1        0.0376
     30 C          64.6055   92.0302   13.1526 C.3     1  UNL1        0.0981
     31 N          66.1615   94.3373   10.3231 N.3     1  UNL1       -0.2738
     32 C          66.0654   95.7734   10.7457 C.3     1  UNL1        0.0720
     33 C          66.9096   96.8124   10.0691 C.3     1  UNL1        0.0174
     34 C          67.8500   96.4154    8.9700 C.3     1  UNL1        0.0029
     35 C          67.9462   94.9794    8.5474 C.3     1  UNL1        0.0174
     36 C          67.1019   93.9403    9.2240 C.3     1  UNL1        0.0720
@<TRIPOS>BOND
     1    17    18    1
     2     1    18    1
     3     1     2    1
     4     2     3    1
     5     3    19    1
     6    19    20    1
     7     3     4    1
     8     4     5    1
     9     5    21    1
    10    21    22    1
    11    22    23    1
    12    23    24    2
    13    23    25   am
    14    25    26    1
    15    26    27    1
    16    27    28    1
    17    28    31    1
    18    31    32    1
    19    32    33    1
    20    33    34    1
    21    34    35    1
    22    35    36    1
    23    28    29    1
    24    29    30    1
    25     5     6    1
    26     6     7    1
    27     7     8    2
    28     7     9    2
    29     7    10    1
    30    10    11   ar
    31    11    12   ar
    32    12    13   ar
    33    13    14    1
    34    13    15   ar
    35    15    16   ar
    36     6     1    1
    37    16    10   ar
    38    30    25    1
    39    36    31    1
@<TRIPOS>MOLECULE
*****
 36 39 0 0 0
SMALL
GASTEIGER

@<TRIPOS>ATOM
      1 C          60.4919   86.4860    7.8155 C.3     1  UNL1        0.0821
      2 C          59.7020   87.5105    7.0564 C.3     1  UNL1        0.0473
      3 C          59.5831   88.9090    7.5857 C.3     1  UNL1        0.1183
      4 C          60.2540   89.2829    8.8740 C.3     1  UNL1        0.0511
      5 C          61.0439   88.2584    9.6331 C.3     1  UNL1        0.1256
      6 N          61.1629   86.8599    9.1039 N.3     1  UNL1       -0.1544
      7 S          61.9529   85.8353    9.8630 S.O2    1  UNL1        0.0633
      8 O          60.8484   85.7317   10.8726 O.2     1  UNL1       -0.1528
      9 O          63.0573   85.9389    8.8534 O.2     1  UNL1       -0.1528
     10 C          62.7428   84.8108   10.6221 C.ar    1  UNL1        0.1223
     11 C          63.5817   83.8113    9.8823 C.ar    1  UNL1        0.0208
     12 C          64.3717   82.7868   10.6414 C.ar    1  UNL1        0.0128
     13 C          64.3228   82.7617   12.1404 C.ar    1  UNL1        0.0578
     14 CL         65.1127   81.7372   12.8995 Cl      1  UNL1       -0.0822
     15 C          63.4839   83.7612   12.8803 C.ar    1  UNL1        0.0128
     16 C          62.6940   84.7857   12.1212 C.ar    1  UNL1        0.0208
     17 C          61.6380   84.7658    6.2415 C.3     1  UNL1        0.0015
     18 C          60.6109   85.0875    7.2862 C.3     1  UNL1        0.0178
     19 O          58.7931   89.9336    6.8265 O.3     1  UNL1       -0.3535
     20 C          59.2825   90.4229    5.4957 C.3     1  UNL1        0.1740
     21 C          61.7150   88.6322   10.9216 C.3     1  UNL1        0.2277
     22 O          61.7378   90.0643   11.3673 O.3     1  UNL1       -0.4330
     23 C          62.8359   90.9761   10.9057 C.2     1  UNL1        0.4049
     24 O          62.8396   91.4925    9.4975 O.2     1  UNL1       -0.2262
     25 N          63.9301   91.3713   11.8525 N.am    1  UNL1       -0.2459
     26 C          63.9264   90.8548   13.2607 C.3     1  UNL1        0.0981
     27 C          65.0207   91.2501   14.2074 C.3     1  UNL1        0.0376
     28 C          66.1187   92.1619   13.7459 C.3     1  UNL1        0.0609
     29 C          66.1225   92.6783   12.3376 C.3     1  UNL1        0.0376
     30 C          65.0281   92.2830   11.3909 C.3     1  UNL1        0.0981
     31 N          67.2130   92.5571   14.6926 N.3     1  UNL1       -0.2738
     32 C          67.6140   93.9973   14.8162 C.3     1  UNL1        0.0720
     33 C          68.7082   94.3925   15.7629 C.3     1  UNL1        0.0174
     34 C          69.4016   93.3476   16.5861 C.3     1  UNL1        0.0029
     35 C          69.0007   91.9075   16.4625 C.3     1  UNL1        0.0174
     36 C          67.9063   91.5123   15.5157 C.3     1  UNL1        0.0720
@<TRIPOS>BOND
     1    17    18    1
     2     1    18    1
     3     1     2    1
     4     2     3    1
     5     3    19    1
     6    19    20    1
     7     3     4    1
     8     4     5    1
     9     5    21    1
    10    21    22    1
    11    22    23    1
    12    23    24    2
    13    23    25   am
    14    25    26    1
    15    26    27    1
    16    27    28    1
    17    28    31    1
    18    31    32    1
    19    32    33    1
    20    33    34    1
    21    34    35    1
    22    35    36    1
    23    28    29    1
    24    29    30    1
    25     5     6    1
    26     6     7    1
    27     7     8    2
    28     7     9    2
    29     7    10    1
    30    10    11   ar
    31    11    12   ar
    32    12    13   ar
    33    13    14    1
    34    13    15   ar
    35    15    16   ar
    36     6     1    1
    37    16    10   ar
    38    30    25    1
    39    36    31    1
@<TRIPOS>MOLECULE
*****
 36 39 0 0 0
SMALL
GASTEIGER

@<TRIPOS>ATOM
      1 C          62.5332   84.1787   14.3452 C.3     1  UNL1        0.0821
      2 C          62.6285   84.3039   15.8369 C.3     1  UNL1        0.0473
      3 C          63.0917   85.5905   16.4535 C.3     1  UNL1        0.1183
      4 C          63.4596   86.7519   15.5784 C.3     1  UNL1        0.0511
      5 C          63.3642   86.6266   14.0867 C.3     1  UNL1        0.1256
      6 N          62.9010   85.3401   13.4701 N.3     1  UNL1       -0.1544
      7 S          62.8057   85.2149   11.9783 S.O2    1  UNL1        0.0633
      8 O          64.1004   84.4578   11.9591 O.2     1  UNL1       -0.1528
      9 O          61.5110   85.9720   11.9976 O.2     1  UNL1       -0.1528
     10 C          62.7103   85.0897   10.4866 C.ar    1  UNL1        0.1223
     11 C          63.5438   84.0730    9.7645 C.ar    1  UNL1        0.0208
     12 C          63.4484   83.9479    8.2727 C.ar    1  UNL1        0.0128
     13 C          62.5195   84.8394    7.5032 C.ar    1  UNL1        0.0578
     14 CL         62.4242   84.7143    6.0115 Cl      1  UNL1       -0.0822
     15 C          61.6861   85.8562    8.2253 C.ar    1  UNL1        0.0128
     16 C          61.7814   85.9813    9.7170 C.ar    1  UNL1        0.0208
     17 C          63.0571   81.7996   13.4422 C.3     1  UNL1        0.0015
     18 C          62.0700   82.8921   13.7287 C.3     1  UNL1        0.0178
     19 O          63.1871   85.7157   17.9453 O.3     1  UNL1       -0.3535
     20 C          62.7462   86.9800   18.6215 C.3     1  UNL1        0.1740
     21 C          63.7321   87.7880   13.2115 C.3     1  UNL1        0.2277
     22 O          63.1973   89.1559   13.5163 O.3     1  UNL1       -0.4330
     23 C          64.1201   90.2279   14.0155 C.2     1  UNL1        0.4049
     24 O          64.5340   90.2498   15.4571 O.2     1  UNL1       -0.2262
     25 N          64.6290   91.2781   13.0730 N.am    1  UNL1       -0.2459
     26 C          64.2151   91.2562   11.6314 C.3     1  UNL1        0.0981
     27 C          64.7240   92.3063   10.6890 C.3     1  UNL1        0.0376
     28 C          65.6469   93.3784   11.1881 C.3     1  UNL1        0.0609
     29 C          66.0608   93.4003   12.6297 C.3     1  UNL1        0.0376
     30 C          65.5518   92.3501   13.5722 C.3     1  UNL1        0.0981
     31 N          66.1558   94.4285   10.2457 N.3     1  UNL1       -0.2738
     32 C          67.2595   94.1017    9.2839 C.3     1  UNL1        0.0720
     33 C          67.7684   95.1519    8.3415 C.3     1  UNL1        0.0174
     34 C          67.1736   96.5288    8.3608 C.3     1  UNL1        0.0029
     35 C          66.0698   96.8555    9.3225 C.3     1  UNL1        0.0174
     36 C          65.5609   95.8053   10.2650 C.3     1  UNL1        0.0720
@<TRIPOS>BOND
     1    17    18    1
     2     1    18    1
     3     1     2    1
     4     2     3    1
     5     3    19    1
     6    19    20    1
     7     3     4    1
     8     4     5    1
     9     5    21    1
    10    21    22    1
    11    22    23    1
    12    23    24    2
    13    23    25   am
    14    25    26    1
    15    26    27    1
    16    27    28    1
    17    28    31    1
    18    31    32    1
    19    32    33    1
    20    33    34    1
    21    34    35    1
    22    35    36    1
    23    28    29    1
    24    29    30    1
    25     5     6    1
    26     6     7    1
    27     7     8    2
    28     7     9    2
    29     7    10    1
    30    10    11   ar
    31    11    12   ar
    32    12    13   ar
    33    13    14    1
    34    13    15   ar
    35    15    16   ar
    36     6     1    1
    37    16    10   ar
    38    30    25    1
    39    36    31    1
@<TRIPOS>MOLECULE
*****
 36 39 0 0 0
SMALL
GASTEIGER

@<TRIPOS>ATOM
      1 C          60.1703   86.6099    7.5605 C.3     1  UNL1        0.0821
      2 C          59.3766   87.5598    6.7133 C.3     1  UNL1        0.0473
      3 C          59.3645   89.0240    7.0386 C.3     1  UNL1        0.1183
      4 C          60.1462   89.5384    8.2109 C.3     1  UNL1        0.0511
      5 C          60.9399   88.5885    9.0580 C.3     1  UNL1        0.1256
      6 N          60.9519   87.1243    8.7328 N.3     1  UNL1       -0.1544
      7 S          61.7457   86.1743    9.5800 S.O2    1  UNL1        0.0633
      8 O          62.8647   86.2194    8.5822 O.2     1  UNL1       -0.1528
      9 O          60.6267   86.1293   10.5778 O.2     1  UNL1       -0.1528
     10 C          62.5394   85.2245   10.4272 C.ar    1  UNL1        0.1223
     11 C          62.4282   85.2805   11.9221 C.ar    1  UNL1        0.0208
     12 C          63.2220   84.3305   12.7693 C.ar    1  UNL1        0.0128
     13 C          64.1268   83.3247   12.1216 C.ar    1  UNL1        0.0578
     14 CL         64.9205   82.3748   12.9688 Cl      1  UNL1       -0.0822
     15 C          64.2380   83.2687   10.6268 C.ar    1  UNL1        0.0128
     16 C          63.4443   84.2186    9.7796 C.ar    1  UNL1        0.0208
     17 C          61.1870   84.6015    6.2634 C.3     1  UNL1        0.0015
     18 C          60.1824   85.1456    7.2353 C.3     1  UNL1        0.0178
     19 O          58.5708   89.9740    6.1913 O.3     1  UNL1       -0.3535
     20 C          59.2761   90.9745    5.3245 C.3     1  UNL1        0.1740
     21 C          61.7215   89.1029   10.2305 C.3     1  UNL1        0.2277
     22 O          61.0672   90.0134   11.2268 O.3     1  UNL1       -0.4330
     23 C          61.4345   89.9244   12.6785 C.2     1  UNL1        0.4049
     24 O          60.4803   89.3061   13.6569 O.2     1  UNL1       -0.2262
     25 N          62.7558   90.4537   13.1517 N.am    1  UNL1       -0.2459
     26 C          63.7099   91.0719   12.1732 C.3     1  UNL1        0.0981
     27 C          65.0313   91.6012   12.6464 C.3     1  UNL1        0.0376
     28 C          65.3985   91.5122   14.0981 C.3     1  UNL1        0.0609
     29 C          64.4444   90.8939   15.0765 C.3     1  UNL1        0.0376
     30 C          63.1230   90.3646   14.6033 C.3     1  UNL1        0.0981
     31 N          66.7198   92.0414   14.5712 N.3     1  UNL1       -0.2738
     32 C          67.9565   91.8097   13.7546 C.3     1  UNL1        0.0720
     33 C          69.2778   92.3389   14.2278 C.3     1  UNL1        0.0174
     34 C          69.3625   93.1000   15.5176 C.3     1  UNL1        0.0029
     35 C          68.1259   93.3318   16.3342 C.3     1  UNL1        0.0174
     36 C          66.8045   92.8025   15.8610 C.3     1  UNL1        0.0720
@<TRIPOS>BOND
     1    17    18    1
     2     1    18    1
     3     1     2    1
     4     2     3    1
     5     3    19    1
     6    19    20    1
     7     3     4    1
     8     4     5    1
     9     5    21    1
    10    21    22    1
    11    22    23    1
    12    23    24    2
    13    23    25   am
    14    25    26    1
    15    26    27    1
    16    27    28    1
    17    28    31    1
    18    31    32    1
    19    32    33    1
    20    33    34    1
    21    34    35    1
    22    35    36    1
    23    28    29    1
    24    29    30    1
    25     5     6    1
    26     6     7    1
    27     7     8    2
    28     7     9    2
    29     7    10    1
    30    10    11   ar
    31    11    12   ar
    32    12    13   ar
    33    13    14    1
    34    13    15   ar
    35    15    16   ar
    36     6     1    1
    37    16    10   ar
    38    30    25    1
    39    36    31    1
@<TRIPOS>MOLECULE
*****
 36 39 0 0 0
SMALL
GASTEIGER

@<TRIPOS>ATOM
      1 C          62.8203   85.1286   11.6900 C.3     1  UNL1        0.0821
      2 C          63.6284   84.5359   12.8061 C.3     1  UNL1        0.0473
      3 C          64.1910   85.4222   13.8775 C.3     1  UNL1        0.1183
      4 C          63.9455   86.9013   13.8328 C.3     1  UNL1        0.0511
      5 C          63.1375   87.4940   12.7168 C.3     1  UNL1        0.1256
      6 N          62.5749   86.6077   11.6454 N.3     1  UNL1       -0.1544
      7 S          61.7668   87.2005   10.5293 S.O2    1  UNL1        0.0633
      8 O          60.5386   87.1441   11.3885 O.2     1  UNL1       -0.1528
      9 O          62.9949   87.2569    9.6700 O.2     1  UNL1       -0.1528
     10 C          60.9587   87.7933    9.4132 C.ar    1  UNL1        0.1223
     11 C          60.8961   89.2821    9.2413 C.ar    1  UNL1        0.0208
     12 C          60.0880   89.8749    8.1251 C.ar    1  UNL1        0.0128
     13 C          59.3426   88.9788    7.1810 C.ar    1  UNL1        0.0578
     14 CL         58.5346   89.5716    6.0649 Cl      1  UNL1       -0.0822
     15 C          59.4052   87.4900    7.3529 C.ar    1  UNL1        0.0128
     16 C          60.2133   86.8973    8.4690 C.ar    1  UNL1        0.0208
     17 C          63.1269   83.7981    9.4797 C.3     1  UNL1        0.0015
     18 C          62.2578   84.2423   10.6186 C.3     1  UNL1        0.0178
     19 O          64.9991   84.8294   14.9936 O.3     1  UNL1       -0.3535
     20 C          64.5437   83.5649   15.6597 C.3     1  UNL1        0.1740
     21 C          62.8919   88.9732   12.6721 C.3     1  UNL1        0.2277
     22 O          62.7601   89.7504   13.9482 O.3     1  UNL1       -0.4330
     23 C          63.8733   90.6503   14.3967 C.2     1  UNL1        0.4049
     24 O          64.3458   90.6067   15.8197 O.2     1  UNL1       -0.2262
     25 N          64.5140   91.5936   13.4223 N.am    1  UNL1       -0.2459
     26 C          64.0415   91.6372   11.9993 C.3     1  UNL1        0.0981
     27 C          64.6822   92.5806   11.0249 C.3     1  UNL1        0.0376
     28 C          65.7954   93.4804   11.4734 C.3     1  UNL1        0.0609
     29 C          66.2679   93.4368   12.8964 C.3     1  UNL1        0.0376
     30 C          65.6272   92.4934   13.8708 C.3     1  UNL1        0.0981
     31 N          66.4361   94.4238   10.4990 N.3     1  UNL1       -0.2738
     32 C          66.3039   95.9054   10.6920 C.3     1  UNL1        0.0720
     33 C          66.9446   96.8488    9.7176 C.3     1  UNL1        0.0174
     34 C          67.7175   96.3105    8.5501 C.3     1  UNL1        0.0029
     35 C          67.8497   94.8289    8.3571 C.3     1  UNL1        0.0174
     36 C          67.2090   93.8855    9.3316 C.3     1  UNL1        0.0720
@<TRIPOS>BOND
     1    17    18    1
     2     1    18    1
     3     1     2    1
     4     2     3    1
     5     3    19    1
     6    19    20    1
     7     3     4    1
     8     4     5    1
     9     5    21    1
    10    21    22    1
    11    22    23    1
    12    23    24    2
    13    23    25   am
    14    25    26    1
    15    26    27    1
    16    27    28    1
    17    28    31    1
    18    31    32    1
    19    32    33    1
    20    33    34    1
    21    34    35    1
    22    35    36    1
    23    28    29    1
    24    29    30    1
    25     5     6    1
    26     6     7    1
    27     7     8    2
    28     7     9    2
    29     7    10    1
    30    10    11   ar
    31    11    12   ar
    32    12    13   ar
    33    13    14    1
    34    13    15   ar
    35    15    16   ar
    36     6     1    1
    37    16    10   ar
    38    30    25    1
    39    36    31    1
@<TRIPOS>MOLECULE
*****
 36 39 0 0 0
SMALL
GASTEIGER

@<TRIPOS>ATOM
      1 C          63.1535   84.5204    9.5025 C.3     1  UNL1        0.0821
      2 C          62.8406   84.4624    8.0366 C.3     1  UNL1        0.0473
      3 C          61.6883   85.2478    7.4840 C.3     1  UNL1        0.1183
      4 C          60.8489   86.0912    8.3973 C.3     1  UNL1        0.0511
      5 C          61.1618   86.1492    9.8631 C.3     1  UNL1        0.1256
      6 N          62.3141   85.3638   10.4157 N.3     1  UNL1       -0.1544
      7 S          62.6269   85.4218   11.8816 S.O2    1  UNL1        0.0633
      8 O          63.1664   86.8110   11.7116 O.2     1  UNL1       -0.1528
      9 O          62.0874   84.0326   12.0517 O.2     1  UNL1       -0.1528
     10 C          62.9397   85.4798   13.3475 C.ar    1  UNL1        0.1223
     11 C          62.3073   84.4979   14.2887 C.ar    1  UNL1        0.0208
     12 C          62.6202   84.5559   15.7546 C.ar    1  UNL1        0.0128
     13 C          63.5654   85.5957   16.2792 C.ar    1  UNL1        0.0578
     14 CL         63.8782   85.6537   17.7451 Cl      1  UNL1       -0.0822
     15 C          64.1977   86.5777   15.3380 C.ar    1  UNL1        0.0128
     16 C          63.8849   86.5197   13.8721 C.ar    1  UNL1        0.0208
     17 C          64.1600   82.2628   10.3025 C.3     1  UNL1        0.0015
     18 C          64.3058   83.7350   10.0551 C.3     1  UNL1        0.0178
     19 O          61.3755   85.1898    6.0181 O.3     1  UNL1       -0.3535
     20 C          62.0142   84.1417    5.1558 C.3     1  UNL1        0.1740
     21 C          60.3223   86.9926   10.7764 C.3     1  UNL1        0.2277
     22 O          59.8123   88.3239   10.3100 O.3     1  UNL1       -0.4330
     23 C          60.7599   89.3245    9.7178 C.2     1  UNL1        0.4049
     24 O          60.6623   89.6807    8.2639 O.2     1  UNL1       -0.2262
     25 N          61.8051   89.9689   10.5793 N.am    1  UNL1       -0.2459
     26 C          61.9027   89.6127   12.0331 C.3     1  UNL1        0.0981
     27 C          62.9479   90.2571   12.8947 C.3     1  UNL1        0.0376
     28 C          63.8955   91.2578   12.3024 C.3     1  UNL1        0.0609
     29 C          63.7979   91.6140   10.8486 C.3     1  UNL1        0.0376
     30 C          62.7527   90.9695    9.9870 C.3     1  UNL1        0.0981
     31 N          64.9407   91.9022   13.1639 N.3     1  UNL1       -0.2738
     32 C          65.7032   93.0900   12.6563 C.3     1  UNL1        0.0720
     33 C          66.7484   93.7344   13.5178 C.3     1  UNL1        0.0174
     34 C          67.0311   93.1910   14.8871 C.3     1  UNL1        0.0029
     35 C          66.2687   92.0031   15.3947 C.3     1  UNL1        0.0174
     36 C          65.2234   91.3587   14.5331 C.3     1  UNL1        0.0720
@<TRIPOS>BOND
     1    17    18    1
     2     1    18    1
     3     1     2    1
     4     2     3    1
     5     3    19    1
     6    19    20    1
     7     3     4    1
     8     4     5    1
     9     5    21    1
    10    21    22    1
    11    22    23    1
    12    23    24    2
    13    23    25   am
    14    25    26    1
    15    26    27    1
    16    27    28    1
    17    28    31    1
    18    31    32    1
    19    32    33    1
    20    33    34    1
    21    34    35    1
    22    35    36    1
    23    28    29    1
    24    29    30    1
    25     5     6    1
    26     6     7    1
    27     7     8    2
    28     7     9    2
    29     7    10    1
    30    10    11   ar
    31    11    12   ar
    32    12    13   ar
    33    13    14    1
    34    13    15   ar
    35    15    16   ar
    36     6     1    1
    37    16    10   ar
    38    30    25    1
    39    36    31    1
@<TRIPOS>MOLECULE
*****
 36 39 0 0 0
SMALL
GASTEIGER

@<TRIPOS>ATOM
      1 C          64.3274   95.7173    0.7446 C.3     1  UNL1        0.0821
      2 C          65.1361   96.4692   -0.2705 C.3     1  UNL1        0.0473
      3 C          65.0539   96.0956   -1.7209 C.3     1  UNL1        0.1183
      4 C          64.1631   94.9700   -2.1562 C.3     1  UNL1        0.0511
      5 C          63.3544   94.2181   -1.1410 C.3     1  UNL1        0.1256
      6 N          63.4365   94.5917    0.3094 N.3     1  UNL1       -0.1544
      7 S          62.6278   93.8397    1.3245 S.O2    1  UNL1        0.0633
      8 O          61.4978   94.8092    1.1425 O.2     1  UNL1       -0.1528
      9 O          63.7578   92.8703    1.5066 O.2     1  UNL1       -0.1528
     10 C          61.8191   93.0878    2.3397 C.ar    1  UNL1        0.1223
     11 C          60.3914   93.4710    2.5945 C.ar    1  UNL1        0.0208
     12 C          59.5828   92.7189    3.6097 C.ar    1  UNL1        0.0128
     13 C          60.2017   91.5837    4.3700 C.ar    1  UNL1        0.0578
     14 CL         59.3931   90.8317    5.3851 Cl      1  UNL1       -0.0822
     15 C          61.6294   91.2005    4.1151 C.ar    1  UNL1        0.0128
     16 C          62.4381   91.9525    3.1000 C.ar    1  UNL1        0.0208
     17 C          65.5942   96.8557    2.7065 C.3     1  UNL1        0.0015
     18 C          64.4095   96.0909    2.1950 C.3     1  UNL1        0.0178
     19 O          65.8627   96.8476   -2.7361 O.3     1  UNL1       -0.3535
     20 C          65.5883   96.6635   -4.1993 C.3     1  UNL1        0.1740
     21 C          62.4635   93.0925   -1.5763 C.3     1  UNL1        0.2277
     22 O          61.1313   93.3882   -2.1990 O.3     1  UNL1       -0.4330
     23 C          59.8711   92.9269   -1.5288 C.2     1  UNL1        0.4049
     24 O          59.9287   91.8591   -0.4769 O.2     1  UNL1       -0.2262
     25 N          58.5533   93.5333   -1.9106 N.am    1  UNL1       -0.2459
     26 C          58.4957   94.6011   -2.9625 C.3     1  UNL1        0.0981
     27 C          57.1780   95.2075   -3.3442 C.3     1  UNL1        0.0376
     28 C          55.9178   94.7461   -2.6740 C.3     1  UNL1        0.0609
     29 C          55.9754   93.6784   -1.6221 C.3     1  UNL1        0.0376
     30 C          57.2932   93.0719   -1.2404 C.3     1  UNL1        0.0981
     31 N          54.6000   95.3526   -3.0557 N.3     1  UNL1       -0.2738
     32 C          53.5235   95.5176   -2.0243 C.3     1  UNL1        0.0720
     33 C          52.2057   96.1241   -2.4061 C.3     1  UNL1        0.0174
     34 C          51.9645   96.5655   -3.8193 C.3     1  UNL1        0.0029
     35 C          53.0411   96.4004   -4.8507 C.3     1  UNL1        0.0174
     36 C          54.3588   95.7939   -4.4689 C.3     1  UNL1        0.0720
@<TRIPOS>BOND
     1    17    18    1
     2     1    18    1
     3     1     2    1
     4     2     3    1
     5     3    19    1
     6    19    20    1
     7     3     4    1
     8     4     5    1
     9     5    21    1
    10    21    22    1
    11    22    23    1
    12    23    24    2
    13    23    25   am
    14    25    26    1
    15    26    27    1
    16    27    28    1
    17    28    31    1
    18    31    32    1
    19    32    33    1
    20    33    34    1
    21    34    35    1
    22    35    36    1
    23    28    29    1
    24    29    30    1
    25     5     6    1
    26     6     7    1
    27     7     8    2
    28     7     9    2
    29     7    10    1
    30    10    11   ar
    31    11    12   ar
    32    12    13   ar
    33    13    14    1
    34    13    15   ar
    35    15    16   ar
    36     6     1    1
    37    16    10   ar
    38    30    25    1
    39    36    31    1
