@<TRIPOS>MOLECULE
*****
 26 28 0 0 0
SMALL
GASTEIGER

@<TRIPOS>ATOM
      1 N          64.3109   87.7072   14.5885 N.am    1  UNL1       -0.2987
      2 C          63.7927   89.1119   14.6789 C.2     1  UNL1        0.2460
      3 O          62.6668   89.4372   15.6153 O.2     1  UNL1       -0.2701
      4 H          65.0498   87.4937   13.9739 H       1  UNL1        0.1500
      5 C          64.4002   90.1914   13.8330 C.ar    1  UNL1        0.0534
      6 C          65.6186   90.9234   14.3124 C.ar    1  UNL1        0.0045
      7 C          66.2262   92.0029   13.4665 C.ar    1  UNL1        0.0001
      8 C          65.6154   92.3503   12.1412 C.ar    1  UNL1        0.0001
      9 C          64.3971   91.6183   11.6619 C.ar    1  UNL1        0.0001
     10 C          63.7895   90.5388   12.5078 C.ar    1  UNL1        0.0045
     11 C          66.2230   93.4298   11.2953 C.ar    1  UNL1        0.0031
     12 C          66.0083   94.8713   11.6506 C.ar    1  UNL1        0.0207
     13 C          66.6159   95.9508   10.8047 C.ar    1  UNL1        0.0989
     14 N          67.4382   95.5888    9.6035 N.ar    1  UNL1       -0.2423
     15 C          67.6529   94.1474    9.2483 C.ar    1  UNL1        0.0989
     16 C          67.0453   93.0679   10.0942 C.ar    1  UNL1        0.0207
     17 C          63.7033   86.6277   15.4344 C.3     1  UNL1        0.0945
     18 C          63.3093   86.9183   16.8522 C.3     1  UNL1        0.0262
     19 C          64.0169   83.4662   13.0559 C.ar    1  UNL1        0.1385
     20 C          63.0625   82.5174   13.7183 C.ar    1  UNL1        0.0369
     21 C          62.3217   82.9386   14.9527 C.ar    1  UNL1        0.0028
     22 C          62.5353   84.3087   15.5247 C.ar    1  UNL1       -0.0025
     23 C          63.4897   85.2575   14.8623 C.ar    1  UNL1       -0.0015
     24 C          64.2305   84.8363   13.6279 C.ar    1  UNL1        0.0342
     25 C          64.0579   83.0315   10.4948 C.3     1  UNL1        0.2525
     26 O          64.7577   83.0450   11.8215 O.3     1  UNL1       -0.4714
@<TRIPOS>BOND
     1    25    26    1
     2    26    19    1
     3    19    20   ar
     4    20    21   ar
     5    21    22   ar
     6    22    23   ar
     7    23    17    1
     8    17    18    1
     9    17     1    1
    10     1     2   am
    11     2     3    2
    12     2     5    1
    13     5     6   ar
    14     6     7   ar
    15     7     8   ar
    16     8    11    1
    17    11    12   ar
    18    12    13   ar
    19    13    14   ar
    20    14    15   ar
    21    15    16   ar
    22     8     9   ar
    23     9    10   ar
    24    23    24   ar
    25    24    19   ar
    26    10     5   ar
    27    16    11   ar
    28     1     4    1
@<TRIPOS>MOLECULE
*****
 26 28 0 0 0
SMALL
GASTEIGER

@<TRIPOS>ATOM
      1 N          63.9583   90.6637   14.0404 N.am    1  UNL1       -0.2987
      2 C          63.9981   89.1717   13.8918 C.2     1  UNL1        0.2460
      3 O          64.6641   88.3309   14.9405 O.2     1  UNL1       -0.2701
      4 H          63.5212   91.2155   13.3521 H       1  UNL1        0.1500
      5 C          63.3719   88.5202   12.6945 C.ar    1  UNL1        0.0534
      6 C          63.2029   87.0303   12.6540 C.ar    1  UNL1        0.0045
      7 C          62.5767   86.3788   11.4567 C.ar    1  UNL1        0.0001
      8 C          62.1195   87.2174   10.2999 C.ar    1  UNL1        0.0001
      9 C          62.2886   88.7072   10.3405 C.ar    1  UNL1        0.0001
     10 C          62.9148   89.3586   11.5378 C.ar    1  UNL1        0.0045
     11 C          61.4933   86.5659    9.1027 C.ar    1  UNL1        0.0031
     12 C          60.0661   86.8619    8.7484 C.ar    1  UNL1        0.0207
     13 C          59.4399   86.2105    7.5512 C.ar    1  UNL1        0.0989
     14 N          60.2409   85.2631    6.7081 N.ar    1  UNL1       -0.2423
     15 C          61.6681   84.9671    7.0623 C.ar    1  UNL1        0.0989
     16 C          62.2943   85.6185    8.2596 C.ar    1  UNL1        0.0207
     17 C          64.5845   91.3151   15.2377 C.3     1  UNL1        0.0945
     18 C          63.8048   91.4496   16.5120 C.3     1  UNL1        0.0262
     19 C          68.2285   92.0810   13.8646 C.ar    1  UNL1        0.1385
     20 C          68.8025   92.8660   15.0065 C.ar    1  UNL1        0.0369
     21 C          67.9706   93.1341   16.2255 C.ar    1  UNL1        0.0028
     22 C          66.5646   92.6172   16.3026 C.ar    1  UNL1       -0.0025
     23 C          65.9906   91.8321   15.1607 C.ar    1  UNL1       -0.0015
     24 C          66.8225   91.5640   13.9416 C.ar    1  UNL1        0.0342
     25 C          68.4319   91.8561   11.2843 C.3     1  UNL1        0.2525
     26 O          69.0604   91.8128   12.6455 O.3     1  UNL1       -0.4714
@<TRIPOS>BOND
     1    25    26    1
     2    26    19    1
     3    19    20   ar
     4    20    21   ar
     5    21    22   ar
     6    22    23   ar
     7    23    17    1
     8    17    18    1
     9    17     1    1
    10     1     2   am
    11     2     3    2
    12     2     5    1
    13     5     6   ar
    14     6     7   ar
    15     7     8   ar
    16     8    11    1
    17    11    12   ar
    18    12    13   ar
    19    13    14   ar
    20    14    15   ar
    21    15    16   ar
    22     8     9   ar
    23     9    10   ar
    24    23    24   ar
    25    24    19   ar
    26    10     5   ar
    27    16    11   ar
    28     1     4    1
@<TRIPOS>MOLECULE
*****
 26 28 0 0 0
SMALL
GASTEIGER

@<TRIPOS>ATOM
      1 N          64.5519   88.4516   14.0124 N.am    1  UNL1       -0.2987
      2 C          63.7475   89.6887   13.7438 C.2     1  UNL1        0.2460
      3 O          62.3257   89.7757   14.2140 O.2     1  UNL1       -0.2701
      4 H          65.4850   88.3945   13.7038 H       1  UNL1        0.1500
      5 C          64.3647   90.8390   13.0049 C.ar    1  UNL1        0.0534
      6 C          65.4137   91.6808   13.6691 C.ar    1  UNL1        0.0045
      7 C          66.0310   92.8310   12.9303 C.ar    1  UNL1        0.0001
      8 C          65.5993   93.1395   11.5272 C.ar    1  UNL1        0.0001
      9 C          64.5503   92.2977   10.8631 C.ar    1  UNL1        0.0001
     10 C          63.9331   91.1475   11.6019 C.ar    1  UNL1        0.0045
     11 C          66.2165   94.2897   10.7883 C.ar    1  UNL1        0.0031
     12 C          67.0539   94.0358    9.5699 C.ar    1  UNL1        0.0207
     13 C          67.6712   95.1860    8.8311 C.ar    1  UNL1        0.0989
     14 N          67.4511   96.5902    9.3106 N.ar    1  UNL1       -0.2423
     15 C          66.6137   96.8441   10.5289 C.ar    1  UNL1        0.0989
     16 C          65.9965   95.6938   11.2678 C.ar    1  UNL1        0.0207
     17 C          63.9346   87.3013   14.7513 C.3     1  UNL1        0.0945
     18 C          63.6791   87.4074   16.2255 C.3     1  UNL1        0.0262
     19 C          63.3808   83.4550   13.9456 C.ar    1  UNL1        0.1385
     20 C          62.8493   83.5324   12.5451 C.ar    1  UNL1        0.0369
     21 C          62.6797   84.8661   11.8799 C.ar    1  UNL1        0.0028
     22 C          63.0414   86.1224   12.6153 C.ar    1  UNL1       -0.0025
     23 C          63.5728   86.0450   14.0158 C.ar    1  UNL1       -0.0015
     24 C          63.7425   84.7113   14.6810 C.ar    1  UNL1        0.0342
     25 C          63.2445   80.8621   13.8553 C.3     1  UNL1        0.2525
     26 O          63.5504   82.1213   14.6108 O.3     1  UNL1       -0.4714
@<TRIPOS>BOND
     1    25    26    1
     2    26    19    1
     3    19    20   ar
     4    20    21   ar
     5    21    22   ar
     6    22    23   ar
     7    23    17    1
     8    17    18    1
     9    17     1    1
    10     1     2   am
    11     2     3    2
    12     2     5    1
    13     5     6   ar
    14     6     7   ar
    15     7     8   ar
    16     8    11    1
    17    11    12   ar
    18    12    13   ar
    19    13    14   ar
    20    14    15   ar
    21    15    16   ar
    22     8     9   ar
    23     9    10   ar
    24    23    24   ar
    25    24    19   ar
    26    10     5   ar
    27    16    11   ar
    28     1     4    1
@<TRIPOS>MOLECULE
*****
 26 28 0 0 0
SMALL
GASTEIGER

@<TRIPOS>ATOM
      1 N          65.9062   90.9178   13.7233 N.am    1  UNL1       -0.2987
      2 C          64.5139   90.4402   14.0120 C.2     1  UNL1        0.2460
      3 O          63.4741   91.4077   14.4946 O.2     1  UNL1       -0.2701
      4 H          66.5886   90.2829   13.4065 H       1  UNL1        0.1500
      5 C          64.1613   88.9952   13.8180 C.ar    1  UNL1        0.0534
      6 C          63.4166   88.5633   12.5896 C.ar    1  UNL1        0.0045
      7 C          63.0641   87.1183   12.3956 C.ar    1  UNL1        0.0001
      8 C          63.4562   86.1052   13.4300 C.ar    1  UNL1        0.0001
      9 C          64.2009   86.5372   14.6584 C.ar    1  UNL1        0.0001
     10 C          64.5535   87.9822   14.8523 C.ar    1  UNL1        0.0045
     11 C          63.1037   84.6602   13.2361 C.ar    1  UNL1        0.0031
     12 C          63.1967   84.0420   11.8725 C.ar    1  UNL1        0.0207
     13 C          62.8441   82.5970   11.6785 C.ar    1  UNL1        0.0989
     14 N          62.3986   81.7701   12.8481 N.ar    1  UNL1       -0.2423
     15 C          62.3056   82.3883   14.2116 C.ar    1  UNL1        0.0989
     16 C          62.6581   83.8333   14.4056 C.ar    1  UNL1        0.0207
     17 C          66.2587   92.3629   13.9173 C.3     1  UNL1        0.0945
     18 C          66.4291   92.9140   15.3019 C.3     1  UNL1        0.0262
     19 C          67.1074   93.5793   10.2362 C.ar    1  UNL1        0.1385
     20 C          66.8053   95.0445   10.3451 C.ar    1  UNL1        0.0369
     21 C          66.3210   95.6158   11.6448 C.ar    1  UNL1        0.0028
     22 C          66.1388   94.7220   12.8355 C.ar    1  UNL1       -0.0025
     23 C          66.4409   93.2568   12.7265 C.ar    1  UNL1       -0.0015
     24 C          66.9252   92.6854   11.4269 C.ar    1  UNL1        0.0342
     25 C          68.8500   92.1923    8.8984 C.3     1  UNL1        0.2525
     26 O          67.5918   93.0079    8.9366 O.3     1  UNL1       -0.4714
@<TRIPOS>BOND
     1    25    26    1
     2    26    19    1
     3    19    20   ar
     4    20    21   ar
     5    21    22   ar
     6    22    23   ar
     7    23    17    1
     8    17    18    1
     9    17     1    1
    10     1     2   am
    11     2     3    2
    12     2     5    1
    13     5     6   ar
    14     6     7   ar
    15     7     8   ar
    16     8    11    1
    17    11    12   ar
    18    12    13   ar
    19    13    14   ar
    20    14    15   ar
    21    15    16   ar
    22     8     9   ar
    23     9    10   ar
    24    23    24   ar
    25    24    19   ar
    26    10     5   ar
    27    16    11   ar
    28     1     4    1
@<TRIPOS>MOLECULE
*****
 26 28 0 0 0
SMALL
GASTEIGER

@<TRIPOS>ATOM
      1 N          65.8331   90.8472   13.5963 N.am    1  UNL1       -0.2987
      2 C          64.4005   90.4206   13.4716 C.2     1  UNL1        0.2460
      3 O          63.3167   91.4528   13.3710 O.2     1  UNL1       -0.2701
      4 H          66.5445   90.1698   13.6624 H       1  UNL1        0.1500
      5 C          64.0517   88.9620   13.4476 C.ar    1  UNL1        0.0534
      6 C          64.5267   88.0590   14.5472 C.ar    1  UNL1        0.0045
      7 C          64.1778   86.6003   14.5232 C.ar    1  UNL1        0.0001
      8 C          63.3540   86.0446   13.3996 C.ar    1  UNL1        0.0001
      9 C          62.8790   86.9476   12.3000 C.ar    1  UNL1        0.0001
     10 C          63.2279   88.4062   12.3240 C.ar    1  UNL1        0.0045
     11 C          63.0051   84.5859   13.3755 C.ar    1  UNL1        0.0031
     12 C          63.1578   83.7991   12.1076 C.ar    1  UNL1        0.0207
     13 C          62.8090   82.3404   12.0836 C.ar    1  UNL1        0.0989
     14 N          62.3074   81.6686   13.3275 N.ar    1  UNL1       -0.2423
     15 C          62.1547   82.4555   14.5953 C.ar    1  UNL1        0.0989
     16 C          62.5036   83.9141   14.6193 C.ar    1  UNL1        0.0207
     17 C          66.1820   92.3059   13.6204 C.3     1  UNL1        0.0945
     18 C          66.1943   93.0528   14.9211 C.3     1  UNL1        0.0262
     19 C          66.4117   95.1473   10.8593 C.ar    1  UNL1        0.1385
     20 C          67.1917   94.4412    9.7901 C.ar    1  UNL1        0.0369
     21 C          67.6350   93.0234    9.9977 C.ar    1  UNL1        0.0028
     22 C          67.2985   92.3116   11.2744 C.ar    1  UNL1       -0.0025
     23 C          66.5186   93.0177   12.3436 C.ar    1  UNL1       -0.0015
     24 C          66.0752   94.4355   12.1360 C.ar    1  UNL1        0.0342
     25 C          64.7252   96.8545    9.8638 C.3     1  UNL1        0.2525
     26 O          65.9684   96.5652   10.6517 O.3     1  UNL1       -0.4714
@<TRIPOS>BOND
     1    25    26    1
     2    26    19    1
     3    19    20   ar
     4    20    21   ar
     5    21    22   ar
     6    22    23   ar
     7    23    17    1
     8    17    18    1
     9    17     1    1
    10     1     2   am
    11     2     3    2
    12     2     5    1
    13     5     6   ar
    14     6     7   ar
    15     7     8   ar
    16     8    11    1
    17    11    12   ar
    18    12    13   ar
    19    13    14   ar
    20    14    15   ar
    21    15    16   ar
    22     8     9   ar
    23     9    10   ar
    24    23    24   ar
    25    24    19   ar
    26    10     5   ar
    27    16    11   ar
    28     1     4    1
@<TRIPOS>MOLECULE
*****
 26 28 0 0 0
SMALL
GASTEIGER

@<TRIPOS>ATOM
      1 N          64.2220   88.6329   14.5221 N.am    1  UNL1       -0.2987
      2 C          63.4174   88.1879   13.3370 C.2     1  UNL1        0.2460
      3 O          62.7150   89.2021   12.4838 O.2     1  UNL1       -0.2701
      4 H          64.6830   87.9673   15.0821 H       1  UNL1        0.1500
      5 C          63.3152   86.7286   13.0052 C.ar    1  UNL1        0.0534
      6 C          63.9694   85.7103   13.8912 C.ar    1  UNL1        0.0045
      7 C          63.8672   84.2511   13.5594 C.ar    1  UNL1        0.0001
      8 C          63.1107   83.8101   12.3414 C.ar    1  UNL1        0.0001
      9 C          62.4565   84.8284   11.4554 C.ar    1  UNL1        0.0001
     10 C          62.5587   86.2877   11.7873 C.ar    1  UNL1        0.0045
     11 C          63.0084   82.3509   12.0095 C.ar    1  UNL1        0.0031
     12 C          62.6206   81.3655   13.0719 C.ar    1  UNL1        0.0207
     13 C          62.5183   79.9062   12.7400 C.ar    1  UNL1        0.0989
     14 N          62.8039   79.4324   11.3457 N.ar    1  UNL1       -0.2423
     15 C          63.1918   80.4178   10.2834 C.ar    1  UNL1        0.0989
     16 C          63.2940   81.8770   10.6153 C.ar    1  UNL1        0.0207
     17 C          64.3242   90.0922   14.8540 C.3     1  UNL1        0.0945
     18 C          63.5664   90.6506   16.0218 C.3     1  UNL1        0.0262
     19 C          67.4216   92.2615   13.6496 C.ar    1  UNL1        0.1385
     20 C          66.9046   92.7945   12.3462 C.ar    1  UNL1        0.0369
     21 C          65.5276   92.4267   11.8788 C.ar    1  UNL1        0.0028
     22 C          64.6675   91.5260   12.7147 C.ar    1  UNL1       -0.0025
     23 C          65.1844   90.9930   14.0180 C.ar    1  UNL1       -0.0015
     24 C          66.5614   91.3608   14.4855 C.ar    1  UNL1        0.0342
     25 C          69.0386   92.9535   15.5617 C.3     1  UNL1        0.2525
     26 O          68.7986   92.6293   14.1170 O.3     1  UNL1       -0.4714
@<TRIPOS>BOND
     1    25    26    1
     2    26    19    1
     3    19    20   ar
     4    20    21   ar
     5    21    22   ar
     6    22    23   ar
     7    23    17    1
     8    17    18    1
     9    17     1    1
    10     1     2   am
    11     2     3    2
    12     2     5    1
    13     5     6   ar
    14     6     7   ar
    15     7     8   ar
    16     8    11    1
    17    11    12   ar
    18    12    13   ar
    19    13    14   ar
    20    14    15   ar
    21    15    16   ar
    22     8     9   ar
    23     9    10   ar
    24    23    24   ar
    25    24    19   ar
    26    10     5   ar
    27    16    11   ar
    28     1     4    1
@<TRIPOS>MOLECULE
*****
 26 28 0 0 0
SMALL
GASTEIGER

@<TRIPOS>ATOM
      1 N          61.4467   88.9195   11.9386 N.am    1  UNL1       -0.2987
      2 C          62.2235   90.0540   11.3390 C.2     1  UNL1        0.2460
      3 O          61.8041   90.6366   10.0219 O.2     1  UNL1       -0.2701
      4 H          61.7220   88.5371   12.8030 H       1  UNL1        0.1500
      5 C          63.4196   90.6058   12.0564 C.ar    1  UNL1        0.0534
      6 C          63.7983   90.0700   13.4054 C.ar    1  UNL1        0.0045
      7 C          64.9945   90.6218   14.1228 C.ar    1  UNL1        0.0001
      8 C          65.8119   91.7096   13.4913 C.ar    1  UNL1        0.0001
      9 C          65.4332   92.2454   12.1424 C.ar    1  UNL1        0.0001
     10 C          64.2371   91.6935   11.4250 C.ar    1  UNL1        0.0045
     11 C          67.0080   92.2614   14.2087 C.ar    1  UNL1        0.0031
     12 C          66.8222   93.1748   15.3840 C.ar    1  UNL1        0.0207
     13 C          68.0184   93.7267   16.1014 C.ar    1  UNL1        0.0989
     14 N          69.4003   93.3652   15.6435 N.ar    1  UNL1       -0.2423
     15 C          69.5861   92.4518   14.4683 C.ar    1  UNL1        0.0989
     16 C          68.3899   91.9000   13.7509 C.ar    1  UNL1        0.0207
     17 C          60.2506   88.3676   11.2212 C.3     1  UNL1        0.0945
     18 C          58.8692   88.6863   11.7111 C.3     1  UNL1        0.0262
     19 C          61.8894   85.8442    8.6334 C.ar    1  UNL1        0.1385
     20 C          60.8067   85.7559    7.5991 C.ar    1  UNL1        0.0369
     21 C          59.5386   86.5382    7.7721 C.ar    1  UNL1        0.0028
     22 C          59.3532   87.4088    8.9795 C.ar    1  UNL1       -0.0025
     23 C          60.4359   87.4970   10.0138 C.ar    1  UNL1       -0.0015
     24 C          61.7040   86.7147    9.8407 C.ar    1  UNL1        0.0342
     25 C          63.5511   84.0359    9.4813 C.3     1  UNL1        0.2525
     26 O          63.1575   85.0619    8.4604 O.3     1  UNL1       -0.4714
@<TRIPOS>BOND
     1    25    26    1
     2    26    19    1
     3    19    20   ar
     4    20    21   ar
     5    21    22   ar
     6    22    23   ar
     7    23    17    1
     8    17    18    1
     9    17     1    1
    10     1     2   am
    11     2     3    2
    12     2     5    1
    13     5     6   ar
    14     6     7   ar
    15     7     8   ar
    16     8    11    1
    17    11    12   ar
    18    12    13   ar
    19    13    14   ar
    20    14    15   ar
    21    15    16   ar
    22     8     9   ar
    23     9    10   ar
    24    23    24   ar
    25    24    19   ar
    26    10     5   ar
    27    16    11   ar
    28     1     4    1
@<TRIPOS>MOLECULE
*****
 26 28 0 0 0
SMALL
GASTEIGER

@<TRIPOS>ATOM
      1 N          64.4147   88.9218   14.6624 N.am    1  UNL1       -0.2987
      2 C          63.6469   88.4666   13.4569 C.2     1  UNL1        0.2460
      3 O          63.0422   89.4767   12.5273 O.2     1  UNL1       -0.2701
      4 H          64.8115   88.2589   15.2725 H       1  UNL1        0.1500
      5 C          63.4836   87.0012   13.1810 C.ar    1  UNL1        0.0534
      6 C          62.7354   86.5462   11.9632 C.ar    1  UNL1        0.0045
      7 C          62.5721   85.0808   11.6873 C.ar    1  UNL1        0.0001
      8 C          63.1571   84.0706   12.6293 C.ar    1  UNL1        0.0001
      9 C          63.9053   84.5257   13.8471 C.ar    1  UNL1        0.0001
     10 C          64.0685   85.9910   14.1229 C.ar    1  UNL1        0.0045
     11 C          62.9939   82.6052   12.3534 C.ar    1  UNL1        0.0031
     12 C          63.2770   82.0639   10.9834 C.ar    1  UNL1        0.0207
     13 C          63.1137   80.5985   10.7075 C.ar    1  UNL1        0.0989
     14 N          62.6674   79.6745   11.8017 N.ar    1  UNL1       -0.2423
     15 C          62.3843   80.2159   13.1716 C.ar    1  UNL1        0.0989
     16 C          62.5475   81.6812   13.4475 C.ar    1  UNL1        0.0207
     17 C          64.5779   90.3872   14.9382 C.3     1  UNL1        0.0945
     18 C          63.8036   91.0320   16.0494 C.3     1  UNL1        0.0262
     19 C          65.9265   92.8195   12.1071 C.ar    1  UNL1        0.1385
     20 C          67.3905   92.8488   12.4323 C.ar    1  UNL1        0.0369
     21 C          67.9170   92.0575   13.5928 C.ar    1  UNL1        0.0028
     22 C          66.9795   91.2370   14.4281 C.ar    1  UNL1       -0.0025
     23 C          65.5155   91.2077   14.1029 C.ar    1  UNL1       -0.0015
     24 C          64.9890   91.9990   12.9424 C.ar    1  UNL1        0.0342
     25 C          66.1123   94.8534   10.5013 C.3     1  UNL1        0.2525
     26 O          65.4000   93.6107   10.9466 O.3     1  UNL1       -0.4714
@<TRIPOS>BOND
     1    25    26    1
     2    26    19    1
     3    19    20   ar
     4    20    21   ar
     5    21    22   ar
     6    22    23   ar
     7    23    17    1
     8    17    18    1
     9    17     1    1
    10     1     2   am
    11     2     3    2
    12     2     5    1
    13     5     6   ar
    14     6     7   ar
    15     7     8   ar
    16     8    11    1
    17    11    12   ar
    18    12    13   ar
    19    13    14   ar
    20    14    15   ar
    21    15    16   ar
    22     8     9   ar
    23     9    10   ar
    24    23    24   ar
    25    24    19   ar
    26    10     5   ar
    27    16    11   ar
    28     1     4    1
@<TRIPOS>MOLECULE
*****
 26 28 0 0 0
SMALL
GASTEIGER

@<TRIPOS>ATOM
      1 N          63.0954   89.1022   12.2990 N.am    1  UNL1       -0.2987
      2 C          62.7118   88.1186   11.2335 C.2     1  UNL1        0.2460
      3 O          62.3907   88.5996    9.8493 O.2     1  UNL1       -0.2701
      4 H          63.3061   88.7865   13.2074 H       1  UNL1        0.1500
      5 C          62.6491   86.6542   11.5520 C.ar    1  UNL1        0.0534
      6 C          63.1000   86.1586   12.8941 C.ar    1  UNL1        0.0045
      7 C          63.0374   84.6941   13.2125 C.ar    1  UNL1        0.0001
      8 C          62.5238   83.7253   12.1889 C.ar    1  UNL1        0.0001
      9 C          62.0730   84.2209   10.8469 C.ar    1  UNL1        0.0001
     10 C          62.1356   85.6854   10.5284 C.ar    1  UNL1        0.0045
     11 C          62.4612   82.2608   12.5074 C.ar    1  UNL1        0.0031
     12 C          62.8847   81.2514   11.4818 C.ar    1  UNL1        0.0207
     13 C          62.8220   79.7870   11.8003 C.ar    1  UNL1        0.0989
     14 N          62.3359   79.3319   13.1444 N.ar    1  UNL1       -0.2423
     15 C          61.9124   80.3412   14.1700 C.ar    1  UNL1        0.0989
     16 C          61.9750   81.8057   13.8515 C.ar    1  UNL1        0.0207
     17 C          63.1581   90.5666   11.9805 C.3     1  UNL1        0.0945
     18 C          62.0442   91.2158   11.2139 C.3     1  UNL1        0.0262
     19 C          66.1610   93.1609   11.9283 C.ar    1  UNL1        0.1385
     20 C          66.6880   93.0125   13.3248 C.ar    1  UNL1        0.0369
     21 C          66.0384   92.0489   14.2732 C.ar    1  UNL1        0.0028
     22 C          64.8618   91.2336   13.8251 C.ar    1  UNL1       -0.0025
     23 C          64.3348   91.3819   12.4287 C.ar    1  UNL1       -0.0015
     24 C          64.9844   92.3456   11.4802 C.ar    1  UNL1        0.0342
     25 C          66.4794   95.5857   11.0515 C.3     1  UNL1        0.2525
     26 O          66.8106   94.1245   10.9799 O.3     1  UNL1       -0.4714
@<TRIPOS>BOND
     1    25    26    1
     2    26    19    1
     3    19    20   ar
     4    20    21   ar
     5    21    22   ar
     6    22    23   ar
     7    23    17    1
     8    17    18    1
     9    17     1    1
    10     1     2   am
    11     2     3    2
    12     2     5    1
    13     5     6   ar
    14     6     7   ar
    15     7     8   ar
    16     8    11    1
    17    11    12   ar
    18    12    13   ar
    19    13    14   ar
    20    14    15   ar
    21    15    16   ar
    22     8     9   ar
    23     9    10   ar
    24    23    24   ar
    25    24    19   ar
    26    10     5   ar
    27    16    11   ar
    28     1     4    1
