@<TRIPOS>MOLECULE
*****
 36 40 0 0 0
SMALL
GASTEIGER

@<TRIPOS>ATOM
      1 C          59.4281   90.9713    5.1513 C.2     1  UNL1        0.2425
      2 O          60.9225   90.8552    5.0936 O.2     1  UNL1       -0.2733
      3 N          58.6471   90.1286    6.1156 N.am    1  UNL1       -0.3018
      4 H          57.6663   90.2048    6.1535 H       1  UNL1        0.1495
      5 C          59.3605   89.1700    7.0223 C.3     1  UNL1        0.1035
      6 C          60.2492   89.3072    8.2229 C.3     1  UNL1        0.0933
      7 N          60.3694   87.8143    8.3045 N.3     1  UNL1       -0.2711
      8 C          59.4807   87.6771    7.1039 C.3     1  UNL1        0.0933
      9 C          61.0828   86.8556    9.2112 C.3     1  UNL1        0.0576
     10 C          60.7901   86.8556   10.6823 C.3     1  UNL1        0.0163
     11 C          61.5035   85.8970   11.5889 C.3     1  UNL1        0.0063
     12 C          62.5096   84.9382   11.0245 C.3     1  UNL1        0.0301
     13 C          62.8023   84.9382    9.5533 C.3     1  UNL1        0.0063
     14 C          62.0889   85.8969    8.6467 C.3     1  UNL1        0.0163
     15 C          63.2229   83.9796   11.9312 C.ar    1  UNL1        0.0275
     16 C          64.1427   82.8761   11.4994 C.ar    1  UNL1        0.1016
     17 N          64.6300   82.1706   12.7302 N.ar    1  UNL1       -0.2351
     18 C          64.0114   82.8380   13.9226 C.ar    1  UNL1        0.1342
     19 S          63.1418   83.9560   13.4288 S.2     1  UNL1       -0.0688
     20 C          58.7148   91.9299    4.2447 C.3     1  UNL1        0.1747
     21 N          59.4027   93.1816    3.7860 N.pl3   1  UNL1       -0.3093
     22 H          59.2314   94.0346    4.2468 H       1  UNL1        0.1487
     23 C          63.8411   92.9738    0.9333 C.3     1  UNL1        0.1537
     24 N          62.3916   93.0381    1.3140 N.ar    1  UNL1       -0.2476
     25 N          61.8477   93.0704    2.7116 N.ar    1  UNL1       -0.1544
     26 C          60.3515   93.1336    2.6252 C.ar    1  UNL1        0.1500
     27 C          59.9708   93.1404    1.1744 C.ar    1  UNL1        0.0503
     28 C          58.6389   93.1927    0.4865 C.ar    1  UNL1        0.0082
     29 C          58.5678   93.1860   -1.0118 C.ar    1  UNL1        0.0716
     30 C          59.8287   93.1270   -1.8221 C.ar    1  UNL1        0.0054
     31 C          61.1606   93.0747   -1.1343 C.ar    1  UNL1        0.0188
     32 C          61.2316   93.0814    0.3640 C.ar    1  UNL1        0.0807
     33 C          57.2359   93.2384   -1.6997 C.3     1  UNL1        0.4186
     34 F          55.9040   93.2907   -2.3876 F       1  UNL1       -0.1659
     35 F          56.8112   94.3549   -0.7926 F       1  UNL1       -0.1659
     36 F          57.6605   92.1218   -2.6069 F       1  UNL1       -0.1659
@<TRIPOS>BOND
     1    23    24    1
     2    24    25   ar
     3    25    26   ar
     4    26    21    1
     5    21    20    1
     6    20     1    1
     7     1     2    2
     8     1     3   am
     9     3     5    1
    10     5     6    1
    11     6     7    1
    12     9     7    1
    13     9    10    1
    14    10    11    1
    15    11    12    1
    16    12    15    1
    17    15    16   ar
    18    16    17   ar
    19    17    18   ar
    20    18    19   ar
    21    12    13    1
    22    13    14    1
    23     7     8    1
    24    26    27   ar
    25    27    28   ar
    26    28    29   ar
    27    29    33    1
    28    33    34    1
    29    33    35    1
    30    33    36    1
    31    29    30   ar
    32    30    31   ar
    33    31    32   ar
    34    32    24   ar
    35     8     5    1
    36    32    27   ar
    37    14     9    1
    38    19    15   ar
    39    21    22    1
    40     3     4    1
@<TRIPOS>MOLECULE
*****
 36 40 0 0 0
SMALL
GASTEIGER

@<TRIPOS>ATOM
      1 C          59.4319   91.0579    5.1287 C.2     1  UNL1        0.2425
      2 O          60.9235   90.9196    5.0531 O.2     1  UNL1       -0.2733
      3 N          58.6497   90.2252    6.1006 N.am    1  UNL1       -0.3018
      4 H          57.6706   90.3160    6.1502 H       1  UNL1        0.1495
      5 C          59.3592   89.2541    6.9970 C.3     1  UNL1        0.1035
      6 C          59.4592   87.7593    7.0734 C.3     1  UNL1        0.0933
      7 N          60.3627   87.8806    8.2646 N.3     1  UNL1       -0.2711
      8 C          60.2627   89.3753    8.1881 C.3     1  UNL1        0.0933
      9 C          61.0723   86.9095    9.1609 C.3     1  UNL1        0.0576
     10 C          62.0595   85.9392    8.5832 C.3     1  UNL1        0.0163
     11 C          62.7691   84.9681    9.4795 C.3     1  UNL1        0.0063
     12 C          62.4914   84.9673   10.9537 C.3     1  UNL1        0.0301
     13 C          61.5041   85.9376   11.5314 C.3     1  UNL1        0.0063
     14 C          60.7946   86.9087   10.6350 C.3     1  UNL1        0.0163
     15 C          63.2010   83.9961   11.8499 C.ar    1  UNL1        0.0275
     16 C          64.2713   83.0314   11.4327 C.ar    1  UNL1        0.1016
     17 N          64.6968   82.2582   12.6456 N.ar    1  UNL1       -0.2351
     18 C          63.8895   82.7450   13.8124 C.ar    1  UNL1        0.1342
     19 S          62.9651   83.8190   13.3206 S.2     1  UNL1       -0.0688
     20 C          58.7223   92.0290    4.2323 C.3     1  UNL1        0.1747
     21 N          59.4954   93.1096    3.5359 N.pl3   1  UNL1       -0.3093
     22 H          59.8752   93.8554    4.0544 H       1  UNL1        0.1487
     23 C          58.5511   92.6416   -1.6380 C.3     1  UNL1        0.1537
     24 N          59.2557   92.8387   -0.3286 N.ar    1  UNL1       -0.2476
     25 N          58.6177   92.8118    1.0287 N.ar    1  UNL1       -0.1544
     26 C          59.6897   93.0538    2.0496 C.ar    1  UNL1        0.1500
     27 C          60.9902   93.2303    1.3233 C.ar    1  UNL1        0.0503
     28 C          62.3840   93.4949    1.8103 C.ar    1  UNL1        0.0082
     29 C          63.5095   93.6265    0.8276 C.ar    1  UNL1        0.0716
     30 C          63.2413   93.4936   -0.6422 C.ar    1  UNL1        0.0054
     31 C          61.8475   93.2290   -1.1293 C.ar    1  UNL1        0.0188
     32 C          60.7220   93.0974   -0.1466 C.ar    1  UNL1        0.0807
     33 C          64.9034   93.8911    1.3147 C.3     1  UNL1        0.4186
     34 F          66.2972   94.1557    1.8017 F       1  UNL1       -0.1659
     35 F          65.4080   92.7404    0.4955 F       1  UNL1       -0.1659
     36 F          64.3988   95.0418    2.1339 F       1  UNL1       -0.1659
@<TRIPOS>BOND
     1    23    24    1
     2    24    25   ar
     3    25    26   ar
     4    26    21    1
     5    21    20    1
     6    20     1    1
     7     1     2    2
     8     1     3   am
     9     3     5    1
    10     5     6    1
    11     6     7    1
    12     9     7    1
    13     9    10    1
    14    10    11    1
    15    11    12    1
    16    12    15    1
    17    15    16   ar
    18    16    17   ar
    19    17    18   ar
    20    18    19   ar
    21    12    13    1
    22    13    14    1
    23     7     8    1
    24    26    27   ar
    25    27    28   ar
    26    28    29   ar
    27    29    33    1
    28    33    34    1
    29    33    35    1
    30    33    36    1
    31    29    30   ar
    32    30    31   ar
    33    31    32   ar
    34    32    24   ar
    35     8     5    1
    36    32    27   ar
    37    14     9    1
    38    19    15   ar
    39    21    22    1
    40     3     4    1
@<TRIPOS>MOLECULE
*****
 36 40 0 0 0
SMALL
GASTEIGER

@<TRIPOS>ATOM
      1 C          59.4305   91.2367    4.8186 C.2     1  UNL1        0.2425
      2 O          60.9036   90.9542    4.8337 O.2     1  UNL1       -0.2733
      3 N          58.8363   92.0615    3.7157 N.am    1  UNL1       -0.3018
      4 H          57.8694   92.2469    3.7057 H       1  UNL1        0.1495
      5 C          59.7151   92.6037    2.6277 C.3     1  UNL1        0.1035
      6 C          61.1962   92.7054    2.4124 C.3     1  UNL1        0.0933
      7 N          60.9582   93.3705    1.0892 N.3     1  UNL1       -0.2711
      8 C          59.4772   93.2689    1.3046 C.3     1  UNL1        0.0933
      9 C          61.8371   93.9128    0.0013 C.3     1  UNL1        0.0576
     10 C          62.4031   95.2972    0.1146 C.3     1  UNL1        0.0163
     11 C          63.2820   95.8394   -0.9733 C.3     1  UNL1        0.0063
     12 C          63.5948   94.9972   -2.1745 C.3     1  UNL1        0.0301
     13 C          63.0287   93.6128   -2.2878 C.3     1  UNL1        0.0063
     14 C          62.1499   93.0706   -1.1999 C.3     1  UNL1        0.0163
     15 C          64.4737   95.5396   -3.2623 C.ar    1  UNL1        0.0275
     16 C          65.4937   96.6290   -3.1108 C.ar    1  UNL1        0.1016
     17 N          66.1373   96.8505   -4.4475 N.ar    1  UNL1       -0.2351
     18 C          65.5152   95.8980   -5.4251 C.ar    1  UNL1        0.1342
     19 S          64.4870   95.0879   -4.6927 S.2     1  UNL1       -0.0688
     20 C          58.5516   90.6945    5.9065 C.3     1  UNL1        0.1747
     21 N          59.1014   90.5022    7.2889 N.pl3   1  UNL1       -0.3093
     22 H          59.0946   91.2495    7.9298 H       1  UNL1        0.1487
     23 C          60.1494   85.3292    7.4382 C.3     1  UNL1        0.1537
     24 N          60.1433   86.7935    7.7635 N.ar    1  UNL1       -0.2476
     25 N          59.3754   87.8555    7.0338 N.ar    1  UNL1       -0.1544
     26 C          59.6616   89.1712    7.6948 C.ar    1  UNL1        0.1500
     27 C          60.6063   88.9223    8.8331 C.ar    1  UNL1        0.0503
     28 C          61.2338   89.8440    9.8364 C.ar    1  UNL1        0.0082
     29 C          62.1591   89.2960   10.8822 C.ar    1  UNL1        0.0716
     30 C          62.4568   87.8265   10.9246 C.ar    1  UNL1        0.0054
     31 C          61.8292   86.9049    9.9213 C.ar    1  UNL1        0.0188
     32 C          60.9040   87.4528    8.8755 C.ar    1  UNL1        0.0807
     33 C          62.7867   90.2177   11.8856 C.3     1  UNL1        0.4186
     34 F          63.4143   91.1392   12.8889 F       1  UNL1       -0.1659
     35 F          63.0514   89.0515   12.7911 F       1  UNL1       -0.1659
     36 F          62.5221   91.3838   10.9801 F       1  UNL1       -0.1659
@<TRIPOS>BOND
     1    23    24    1
     2    24    25   ar
     3    25    26   ar
     4    26    21    1
     5    21    20    1
     6    20     1    1
     7     1     2    2
     8     1     3   am
     9     3     5    1
    10     5     6    1
    11     6     7    1
    12     9     7    1
    13     9    10    1
    14    10    11    1
    15    11    12    1
    16    12    15    1
    17    15    16   ar
    18    16    17   ar
    19    17    18   ar
    20    18    19   ar
    21    12    13    1
    22    13    14    1
    23     7     8    1
    24    26    27   ar
    25    27    28   ar
    26    28    29   ar
    27    29    33    1
    28    33    34    1
    29    33    35    1
    30    33    36    1
    31    29    30   ar
    32    30    31   ar
    33    31    32   ar
    34    32    24   ar
    35     8     5    1
    36    32    27   ar
    37    14     9    1
    38    19    15   ar
    39    21    22    1
    40     3     4    1
@<TRIPOS>MOLECULE
*****
 36 40 0 0 0
SMALL
GASTEIGER

@<TRIPOS>ATOM
      1 C          61.2540   86.8752    9.8973 C.2     1  UNL1        0.2425
      2 O          62.4176   86.9415    8.9531 O.2     1  UNL1       -0.2733
      3 N          60.0289   87.7005    9.6369 N.am    1  UNL1       -0.3018
      4 H          59.2651   87.6570   10.2566 H       1  UNL1        0.1495
      5 C          59.9674   88.5922    8.4323 C.3     1  UNL1        0.1035
      6 C          59.4417   88.4518    7.0344 C.3     1  UNL1        0.0933
      7 N          59.8805   89.8532    6.7286 N.3     1  UNL1       -0.2711
      8 C          60.4062   89.9936    8.1264 C.3     1  UNL1        0.0933
      9 C          59.8191   90.7449    5.5240 C.3     1  UNL1        0.0576
     10 C          58.5086   91.3340    5.0929 C.3     1  UNL1        0.0163
     11 C          58.4472   92.2256    3.8884 C.3     1  UNL1        0.0063
     12 C          59.6962   92.5283    3.1147 C.3     1  UNL1        0.0301
     13 C          61.0066   91.9392    3.5457 C.3     1  UNL1        0.0063
     14 C          61.0680   91.0475    4.7504 C.3     1  UNL1        0.0163
     15 C          59.6346   93.4199    1.9101 C.ar    1  UNL1        0.0275
     16 C          58.9428   93.1074    0.6163 C.ar    1  UNL1        0.1016
     17 N          59.1346   94.2750   -0.3056 N.ar    1  UNL1       -0.2351
     18 C          59.9450   95.3091    0.4183 C.ar    1  UNL1        0.1342
     19 S          60.2540   94.7806    1.7877 S.2     1  UNL1       -0.0688
     20 C          61.3154   85.9835   11.1019 C.3     1  UNL1        0.1747
     21 N          62.5852   85.8789   11.8937 N.pl3   1  UNL1       -0.3093
     22 H          63.3475   86.4645   11.6811 H       1  UNL1        0.1487
     23 C          62.9091   83.7565   16.7177 C.3     1  UNL1        0.1537
     24 N          62.8423   83.9066   15.2267 N.ar    1  UNL1       -0.2476
     25 N          62.7285   85.1997   14.4750 N.ar    1  UNL1       -0.1544
     26 C          62.6935   84.8822   13.0094 C.ar    1  UNL1        0.1500
     27 C          62.7857   83.3930   12.8553 C.ar    1  UNL1        0.0503
     28 C          62.7977   82.5081   11.6442 C.ar    1  UNL1        0.0082
     29 C          62.9018   81.0202   11.8035 C.ar    1  UNL1        0.0716
     30 C          62.9938   80.4173   13.1739 C.ar    1  UNL1        0.0054
     31 C          62.9818   81.3022   14.3850 C.ar    1  UNL1        0.0188
     32 C          62.8777   82.7900   14.2257 C.ar    1  UNL1        0.0807
     33 C          62.9139   80.1352   10.5924 C.3     1  UNL1        0.4186
     34 F          62.9259   79.2503    9.3814 F       1  UNL1       -0.1659
     35 F          63.2711   81.3132    9.7353 F       1  UNL1       -0.1659
     36 F          62.5566   78.9573   11.4496 F       1  UNL1       -0.1659
@<TRIPOS>BOND
     1    23    24    1
     2    24    25   ar
     3    25    26   ar
     4    26    21    1
     5    21    20    1
     6    20     1    1
     7     1     2    2
     8     1     3   am
     9     3     5    1
    10     5     6    1
    11     6     7    1
    12     9     7    1
    13     9    10    1
    14    10    11    1
    15    11    12    1
    16    12    15    1
    17    15    16   ar
    18    16    17   ar
    19    17    18   ar
    20    18    19   ar
    21    12    13    1
    22    13    14    1
    23     7     8    1
    24    26    27   ar
    25    27    28   ar
    26    28    29   ar
    27    29    33    1
    28    33    34    1
    29    33    35    1
    30    33    36    1
    31    29    30   ar
    32    30    31   ar
    33    31    32   ar
    34    32    24   ar
    35     8     5    1
    36    32    27   ar
    37    14     9    1
    38    19    15   ar
    39    21    22    1
    40     3     4    1
@<TRIPOS>MOLECULE
*****
 36 40 0 0 0
SMALL
GASTEIGER

@<TRIPOS>ATOM
      1 C          59.4474   90.7941    5.3551 C.2     1  UNL1        0.2425
      2 O          58.4189   91.3679    4.4262 O.2     1  UNL1       -0.2733
      3 N          60.9071   90.9606    5.0528 N.am    1  UNL1       -0.3018
      4 H          61.5822   90.5841    5.6625 H       1  UNL1        0.1495
      5 C          61.3383   91.7009    3.8215 C.3     1  UNL1        0.1035
      6 C          62.5704   91.7094    2.9659 C.3     1  UNL1        0.0933
      7 N          61.9481   92.7477    2.0802 N.3     1  UNL1       -0.2711
      8 C          60.7161   92.7392    2.9357 C.3     1  UNL1        0.0933
      9 C          62.3793   93.4880    0.8488 C.3     1  UNL1        0.0576
     10 C          63.3198   94.6509    0.9636 C.3     1  UNL1        0.0163
     11 C          63.7509   95.3911   -0.2676 C.3     1  UNL1        0.0063
     12 C          63.2416   94.9685   -1.6138 C.3     1  UNL1        0.0301
     13 C          62.3011   93.8056   -1.7286 C.3     1  UNL1        0.0063
     14 C          61.8700   93.0654   -0.4973 C.3     1  UNL1        0.0163
     15 C          63.6728   95.7088   -2.8450 C.ar    1  UNL1        0.0275
     16 C          62.7822   96.1371   -3.9735 C.ar    1  UNL1        0.1016
     17 N          63.6292   96.8438   -4.9899 N.ar    1  UNL1       -0.2351
     18 C          65.0433   96.8524   -4.4896 C.ar    1  UNL1        0.1342
     19 S          65.0703   96.1510   -3.1640 S.2     1  UNL1       -0.0688
     20 C          59.0163   90.0539    6.5865 C.3     1  UNL1        0.1747
     21 N          59.8926   88.9811    7.1621 N.pl3   1  UNL1       -0.3093
     22 H          60.3159   88.3198    6.5681 H       1  UNL1        0.1487
     23 C          59.7774   90.1157   12.3176 C.3     1  UNL1        0.1537
     24 N          60.0712   89.4374   11.0124 N.ar    1  UNL1       -0.2476
     25 N          59.5981   89.8838    9.6607 N.ar    1  UNL1       -0.1544
     26 C          60.1241   88.9159    8.6427 C.ar    1  UNL1        0.1500
     27 C          60.9223   87.8714    9.3651 C.ar    1  UNL1        0.0503
     28 C          61.6747   86.6684    8.8785 C.ar    1  UNL1        0.0082
     29 C          62.3943   85.7878    9.8565 C.ar    1  UNL1        0.0716
     30 C          62.3616   86.1101   11.3211 C.ar    1  UNL1        0.0054
     31 C          61.6092   87.3131   11.8077 C.ar    1  UNL1        0.0188
     32 C          60.8896   88.1937   10.8297 C.ar    1  UNL1        0.0807
     33 C          63.1467   84.5847    9.3700 C.3     1  UNL1        0.4186
     34 F          63.8991   83.3818    8.8834 F       1  UNL1       -0.1659
     35 F          63.4363   85.2887    8.0775 F       1  UNL1       -0.1659
     36 F          62.8571   83.8808   10.6624 F       1  UNL1       -0.1659
@<TRIPOS>BOND
     1    23    24    1
     2    24    25   ar
     3    25    26   ar
     4    26    21    1
     5    21    20    1
     6    20     1    1
     7     1     2    2
     8     1     3   am
     9     3     5    1
    10     5     6    1
    11     6     7    1
    12     9     7    1
    13     9    10    1
    14    10    11    1
    15    11    12    1
    16    12    15    1
    17    15    16   ar
    18    16    17   ar
    19    17    18   ar
    20    18    19   ar
    21    12    13    1
    22    13    14    1
    23     7     8    1
    24    26    27   ar
    25    27    28   ar
    26    28    29   ar
    27    29    33    1
    28    33    34    1
    29    33    35    1
    30    33    36    1
    31    29    30   ar
    32    30    31   ar
    33    31    32   ar
    34    32    24   ar
    35     8     5    1
    36    32    27   ar
    37    14     9    1
    38    19    15   ar
    39    21    22    1
    40     3     4    1
@<TRIPOS>MOLECULE
*****
 36 40 0 0 0
SMALL
GASTEIGER

@<TRIPOS>ATOM
      1 C          61.0603   86.6019    9.5772 C.2     1  UNL1        0.2425
      2 O          62.3007   86.8018    8.7579 O.2     1  UNL1       -0.2733
      3 N          59.8202   87.3855    9.2641 N.am    1  UNL1       -0.3018
      4 H          59.0061   87.2543    9.8019 H       1  UNL1        0.1495
      5 C          59.8205   88.3690    8.1316 C.3     1  UNL1        0.1035
      6 C          60.2268   89.8043    7.9733 C.3     1  UNL1        0.0933
      7 N          59.8211   89.7600    6.5299 N.3     1  UNL1       -0.2711
      8 C          59.4149   88.3247    6.6882 C.3     1  UNL1        0.0933
      9 C          59.8214   90.7435    5.3974 C.3     1  UNL1        0.0576
     10 C          58.5427   91.4078    4.9805 C.3     1  UNL1        0.0163
     11 C          58.5430   92.3912    3.8480 C.3     1  UNL1        0.0063
     12 C          59.8221   92.7105    3.1322 C.3     1  UNL1        0.0301
     13 C          61.1007   92.0463    3.5491 C.3     1  UNL1        0.0063
     14 C          61.1004   91.0628    4.6816 C.3     1  UNL1        0.0163
     15 C          59.8223   93.6940    1.9997 C.ar    1  UNL1        0.0275
     16 C          60.3191   95.1082    2.0601 C.ar    1  UNL1        0.1016
     17 N          60.1296   95.7243    0.7057 N.ar    1  UNL1       -0.2351
     18 C          59.5157   94.6911   -0.1918 C.ar    1  UNL1        0.1342
     19 S          59.3258   93.4363    0.6079 S.2     1  UNL1       -0.0688
     20 C          61.0600   85.6184   10.7098 C.3     1  UNL1        0.1747
     21 N          62.2863   84.8029   10.9954 N.pl3   1  UNL1       -0.3093
     22 H          62.6499   84.2024   10.3052 H       1  UNL1        0.1487
     23 C          64.4887   83.5119   15.6174 C.3     1  UNL1        0.1537
     24 N          63.9708   84.3091   14.4571 N.ar    1  UNL1       -0.2476
     25 N          63.3178   83.7529   13.2266 N.ar    1  UNL1       -0.1544
     26 C          62.9585   84.9025   12.3326 C.ar    1  UNL1        0.1500
     27 C          63.3894   86.1693   13.0107 C.ar    1  UNL1        0.0503
     28 C          63.2928   87.6093   12.6021 C.ar    1  UNL1        0.0082
     29 C          63.8219   88.6826   13.5065 C.ar    1  UNL1        0.0716
     30 C          64.4476   88.3158   14.8196 C.ar    1  UNL1        0.0054
     31 C          64.5442   86.8758   15.2281 C.ar    1  UNL1        0.0188
     32 C          64.0150   85.8025   14.3237 C.ar    1  UNL1        0.0807
     33 C          63.7254   90.1227   13.0980 C.3     1  UNL1        0.4186
     34 F          63.6289   91.5627   12.6895 F       1  UNL1       -0.1659
     35 F          65.0601   90.3908   13.7278 F       1  UNL1       -0.1659
     36 F          62.3907   89.8546   12.4682 F       1  UNL1       -0.1659
@<TRIPOS>BOND
     1    23    24    1
     2    24    25   ar
     3    25    26   ar
     4    26    21    1
     5    21    20    1
     6    20     1    1
     7     1     2    2
     8     1     3   am
     9     3     5    1
    10     5     6    1
    11     6     7    1
    12     9     7    1
    13     9    10    1
    14    10    11    1
    15    11    12    1
    16    12    15    1
    17    15    16   ar
    18    16    17   ar
    19    17    18   ar
    20    18    19   ar
    21    12    13    1
    22    13    14    1
    23     7     8    1
    24    26    27   ar
    25    27    28   ar
    26    28    29   ar
    27    29    33    1
    28    33    34    1
    29    33    35    1
    30    33    36    1
    31    29    30   ar
    32    30    31   ar
    33    31    32   ar
    34    32    24   ar
    35     8     5    1
    36    32    27   ar
    37    14     9    1
    38    19    15   ar
    39    21    22    1
    40     3     4    1
@<TRIPOS>MOLECULE
*****
 36 40 0 0 0
SMALL
GASTEIGER

@<TRIPOS>ATOM
      1 C          59.7486   89.0435    8.3546 C.2     1  UNL1        0.2425
      2 O          60.9696   89.8857    8.5780 O.2     1  UNL1       -0.2733
      3 N          58.9977   89.1398    7.0598 N.am    1  UNL1       -0.3018
      4 H          58.1963   88.5870    6.9132 H       1  UNL1        0.1495
      5 C          59.4678   90.0783    5.9882 C.3     1  UNL1        0.1035
      6 C          60.7621   90.2959    5.2619 C.3     1  UNL1        0.0933
      7 N          60.1327   91.4054    4.4727 N.3     1  UNL1       -0.2711
      8 C          58.8385   91.1878    5.1990 C.3     1  UNL1        0.0933
      9 C          60.6028   92.3439    3.4012 C.3     1  UNL1        0.0576
     10 C          62.0325   92.3097    2.9486 C.3     1  UNL1        0.0163
     11 C          62.5026   93.2481    1.8771 C.3     1  UNL1        0.0063
     12 C          61.5430   94.2209    1.2580 C.3     1  UNL1        0.0301
     13 C          60.1134   94.2551    1.7106 C.3     1  UNL1        0.0063
     14 C          59.6433   93.3166    2.7822 C.3     1  UNL1        0.0163
     15 C          62.0133   95.1593    0.1865 C.ar    1  UNL1        0.0275
     16 C          63.2602   95.9920    0.2288 C.ar    1  UNL1        0.1016
     17 N          63.3368   96.7772   -1.0470 N.ar    1  UNL1       -0.2351
     18 C          62.1372   96.4297   -1.8778 C.ar    1  UNL1        0.1342
     19 S          61.3192   95.4299   -1.1155 S.2     1  UNL1       -0.0688
     20 C          59.2785   88.1050    9.4262 C.3     1  UNL1        0.1747
     21 N          60.2769   87.3488   10.2518 N.pl3   1  UNL1       -0.3093
     22 H          60.3250   87.4971   11.2239 H       1  UNL1        0.1487
     23 C          62.8145   84.5117    6.5923 C.3     1  UNL1        0.1537
     24 N          62.3683   85.0626    7.9142 N.ar    1  UNL1       -0.2476
     25 N          61.3296   86.1248    8.1214 N.ar    1  UNL1       -0.1544
     26 C          61.2019   86.3667    9.5963 C.ar    1  UNL1        0.1500
     27 C          62.1617   85.4540   10.3006 C.ar    1  UNL1        0.0503
     28 C          62.4723   85.2528   11.7541 C.ar    1  UNL1        0.0082
     29 C          63.5038   84.2456   12.1681 C.ar    1  UNL1        0.0716
     30 C          64.2247   83.4396   11.1286 C.ar    1  UNL1        0.0054
     31 C          63.9141   83.6408    9.6750 C.ar    1  UNL1        0.0188
     32 C          62.8825   84.6481    9.2610 C.ar    1  UNL1        0.0807
     33 C          63.8145   84.0443   13.6218 C.3     1  UNL1        0.4186
     34 F          64.1251   83.8429   15.0754 F       1  UNL1       -0.1659
     35 F          63.7206   82.5588   13.4361 F       1  UNL1       -0.1659
     36 F          63.9084   85.5297   13.8075 F       1  UNL1       -0.1659
@<TRIPOS>BOND
     1    23    24    1
     2    24    25   ar
     3    25    26   ar
     4    26    21    1
     5    21    20    1
     6    20     1    1
     7     1     2    2
     8     1     3   am
     9     3     5    1
    10     5     6    1
    11     6     7    1
    12     9     7    1
    13     9    10    1
    14    10    11    1
    15    11    12    1
    16    12    15    1
    17    15    16   ar
    18    16    17   ar
    19    17    18   ar
    20    18    19   ar
    21    12    13    1
    22    13    14    1
    23     7     8    1
    24    26    27   ar
    25    27    28   ar
    26    28    29   ar
    27    29    33    1
    28    33    34    1
    29    33    35    1
    30    33    36    1
    31    29    30   ar
    32    30    31   ar
    33    31    32   ar
    34    32    24   ar
    35     8     5    1
    36    32    27   ar
    37    14     9    1
    38    19    15   ar
    39    21    22    1
    40     3     4    1
@<TRIPOS>MOLECULE
*****
 36 40 0 0 0
SMALL
GASTEIGER

@<TRIPOS>ATOM
      1 C          60.0190   88.8858    8.5376 C.2     1  UNL1        0.2425
      2 O          61.2443   89.7330    8.7126 O.2     1  UNL1       -0.2733
      3 N          59.2174   88.9782    7.2731 N.am    1  UNL1       -0.3018
      4 H          58.4132   88.4221    7.1583 H       1  UNL1        0.1495
      5 C          59.6413   89.9180    6.1836 C.3     1  UNL1        0.1035
      6 C          60.9524   90.2997    5.5627 C.3     1  UNL1        0.0933
      7 N          60.2409   91.2470    4.6427 N.3     1  UNL1       -0.2711
      8 C          58.9298   90.8652    5.2636 C.3     1  UNL1        0.0933
      9 C          60.6647   92.1868    3.5531 C.3     1  UNL1        0.0576
     10 C          62.0324   92.0665    2.9489 C.3     1  UNL1        0.0163
     11 C          62.4562   93.0062    1.8594 C.3     1  UNL1        0.0063
     12 C          61.5125   94.0663    1.3740 C.3     1  UNL1        0.0301
     13 C          60.1449   94.1866    1.9782 C.3     1  UNL1        0.0063
     14 C          59.7210   93.2468    3.0678 C.3     1  UNL1        0.0163
     15 C          61.9365   95.0060    0.2844 C.ar    1  UNL1        0.0275
     16 C          61.5477   94.9124   -1.1614 C.ar    1  UNL1        0.1016
     17 N          62.1946   96.0528   -1.8901 N.ar    1  UNL1       -0.2351
     18 C          62.9831   96.8513   -0.8947 C.ar    1  UNL1        0.1342
     19 S          62.8236   96.2044    0.4491 S.2     1  UNL1       -0.0688
     20 C          59.5951   87.9460    9.6272 C.3     1  UNL1        0.1747
     21 N          60.4307   86.7417    9.9461 N.pl3   1  UNL1       -0.3093
     22 H          60.2756   85.8946    9.4690 H       1  UNL1        0.1487
     23 C          63.8934   88.6577   13.4416 C.3     1  UNL1        0.1537
     24 N          63.0941   87.7088   12.5986 N.ar    1  UNL1       -0.2476
     25 N          62.0391   88.0888   11.6023 N.ar    1  UNL1       -0.1544
     26 C          61.5025   86.8281   10.9919 C.ar    1  UNL1        0.1500
     27 C          62.2259   85.6689   11.6109 C.ar    1  UNL1        0.0503
     28 C          62.1159   84.1881   11.3986 C.ar    1  UNL1        0.0082
     29 C          62.9896   83.2517   12.1793 C.ar    1  UNL1        0.0716
     30 C          63.9733   83.7960   13.1722 C.ar    1  UNL1        0.0054
     31 C          64.0833   85.2768   13.3845 C.ar    1  UNL1        0.0188
     32 C          63.2096   86.2132   12.6039 C.ar    1  UNL1        0.0807
     33 C          62.8797   81.7708   11.9670 C.3     1  UNL1        0.4186
     34 F          62.7697   80.2900   11.7547 F       1  UNL1       -0.1659
     35 F          61.9676   81.6685   13.1534 F       1  UNL1       -0.1659
     36 F          63.7918   81.8731   10.7806 F       1  UNL1       -0.1659
@<TRIPOS>BOND
     1    23    24    1
     2    24    25   ar
     3    25    26   ar
     4    26    21    1
     5    21    20    1
     6    20     1    1
     7     1     2    2
     8     1     3   am
     9     3     5    1
    10     5     6    1
    11     6     7    1
    12     9     7    1
    13     9    10    1
    14    10    11    1
    15    11    12    1
    16    12    15    1
    17    15    16   ar
    18    16    17   ar
    19    17    18   ar
    20    18    19   ar
    21    12    13    1
    22    13    14    1
    23     7     8    1
    24    26    27   ar
    25    27    28   ar
    26    28    29   ar
    27    29    33    1
    28    33    34    1
    29    33    35    1
    30    33    36    1
    31    29    30   ar
    32    30    31   ar
    33    31    32   ar
    34    32    24   ar
    35     8     5    1
    36    32    27   ar
    37    14     9    1
    38    19    15   ar
    39    21    22    1
    40     3     4    1
