@<TRIPOS>MOLECULE
*****
 24 25 0 0 0
SMALL
GASTEIGER

@<TRIPOS>ATOM
      1 C          64.8791   92.0112   12.7135 C.ar    1  UNL1        0.0503
      2 C          65.5478   91.5622   13.9789 C.ar    1  UNL1        0.0148
      3 C          65.2340   90.2134   14.5551 C.ar    1  UNL1        0.0058
      4 C          64.2515   89.3135   13.8660 C.ar    1  UNL1        0.0538
      5 C          63.5828   89.7625   12.6006 C.ar    1  UNL1        0.0058
      6 C          63.8966   91.1114   12.0244 C.ar    1  UNL1        0.0148
      7 C          66.5416   93.6235   11.5359 C.2     1  UNL1        0.2261
      8 O          67.5766   92.5379   11.5109 O.2     1  UNL1       -0.2748
      9 N          65.1929   93.3601   12.1372 N.am    1  UNL1       -0.2839
     10 H          64.5137   94.0725   12.1537 H       1  UNL1        0.1549
     11 C          66.8555   94.9723   10.9597 C.3     1  UNL1        0.0854
     12 C          67.9156   94.3760    9.2218 C.3     1  UNL1        0.0005
     13 C          66.6999   95.2135    9.4873 C.3     1  UNL1        0.0086
     14 C          65.4842   96.0510    9.7529 C.3     1  UNL1        0.0005
     15 C          66.5444   95.4547    8.0151 C.3     1  UNL1        0.0005
     16 C          63.9377   87.9646   14.4423 C.2     1  UNL1        0.2509
     17 O          63.5859   87.8328   15.8945 O.2     1  UNL1       -0.2698
     18 N          63.9756   86.7476   13.5664 N.am    1  UNL1       -0.2606
     19 H          64.2064   86.8341   12.6132 H       1  UNL1        0.1571
     20 C          63.6618   85.3987   14.1426 C.ar    1  UNL1        0.1658
     21 N          62.3030   84.9054   14.5430 N.ar    1  UNL1       -0.2224
     22 C          62.4530   83.5081   15.0676 C.ar    1  UNL1        0.1079
     23 C          63.9046   83.1378   14.9913 C.ar    1  UNL1        0.0588
     24 S          64.6517   84.3063   14.4197 S.2     1  UNL1       -0.0508
@<TRIPOS>BOND
     1    12    13    1
     2    13    14    1
     3    13    15    1
     4    13    11    1
     5    11     7    1
     6     7     8    2
     7     7     9   am
     8     9     1    1
     9     1     2   ar
    10     2     3   ar
    11     3     4   ar
    12     4    16    1
    13    16    17    2
    14    16    18   am
    15    18    20    1
    16    20    21   ar
    17    21    22   ar
    18    22    23   ar
    19    23    24   ar
    20     4     5   ar
    21     5     6   ar
    22     6     1   ar
    23    24    20   ar
    24     9    10    1
    25    18    19    1
@<TRIPOS>MOLECULE
*****
 24 25 0 0 0
SMALL
GASTEIGER

@<TRIPOS>ATOM
      1 C          65.7294   92.5933   11.6051 C.ar    1  UNL1        0.0503
      2 C          64.4503   91.8965   11.2470 C.ar    1  UNL1        0.0148
      3 C          63.8453   90.9048   12.1959 C.ar    1  UNL1        0.0058
      4 C          64.5194   90.6099   13.5030 C.ar    1  UNL1        0.0538
      5 C          65.7985   91.3067   13.8612 C.ar    1  UNL1        0.0058
      6 C          66.4035   92.2984   12.9122 C.ar    1  UNL1        0.0148
      7 C          66.4801   95.0210   11.0642 C.2     1  UNL1        0.2261
      8 O          66.0208   95.4654   12.4213 O.2     1  UNL1       -0.2748
      9 N          66.3344   93.5850   10.6562 N.am    1  UNL1       -0.2839
     10 H          66.6359   93.2934    9.7655 H       1  UNL1        0.1549
     11 C          67.0851   96.0127   10.1153 C.3     1  UNL1        0.0854
     12 C          67.5026   96.0117    8.0355 C.3     1  UNL1        0.0005
     13 C          66.3359   96.4249    8.8828 C.3     1  UNL1        0.0086
     14 C          65.1692   96.8380    9.7301 C.3     1  UNL1        0.0005
     15 C          65.5868   96.8370    7.6504 C.3     1  UNL1        0.0005
     16 C          63.9144   89.6182   14.4520 C.2     1  UNL1        0.2509
     17 O          62.7291   90.0049   15.2859 O.2     1  UNL1       -0.2698
     18 N          64.4947   88.2398   14.5670 N.am    1  UNL1       -0.2606
     19 H          65.2727   87.9860   14.0197 H       1  UNL1        0.1571
     20 C          63.8897   87.2481   15.5159 C.ar    1  UNL1        0.1658
     21 N          63.0787   87.5754   16.7346 N.ar    1  UNL1       -0.2224
     22 C          62.6772   86.2846   17.3847 C.ar    1  UNL1        0.1079
     23 C          63.2402   85.1595   16.5678 C.ar    1  UNL1        0.0588
     24 S          63.9895   85.7549   15.4128 S.2     1  UNL1       -0.0508
@<TRIPOS>BOND
     1    12    13    1
     2    13    14    1
     3    13    15    1
     4    13    11    1
     5    11     7    1
     6     7     8    2
     7     7     9   am
     8     9     1    1
     9     1     2   ar
    10     2     3   ar
    11     3     4   ar
    12     4    16    1
    13    16    17    2
    14    16    18   am
    15    18    20    1
    16    20    21   ar
    17    21    22   ar
    18    22    23   ar
    19    23    24   ar
    20     4     5   ar
    21     5     6   ar
    22     6     1   ar
    23    24    20   ar
    24     9    10    1
    25    18    19    1
@<TRIPOS>MOLECULE
*****
 24 25 0 0 0
SMALL
GASTEIGER

@<TRIPOS>ATOM
      1 C          62.5546   89.3645   10.8959 C.ar    1  UNL1        0.0503
      2 C          62.9572   88.6645   12.1599 C.ar    1  UNL1        0.0148
      3 C          63.8329   89.3628   13.1577 C.ar    1  UNL1        0.0058
      4 C          64.3059   90.7611   12.8914 C.ar    1  UNL1        0.0538
      5 C          63.9032   91.4611   11.6274 C.ar    1  UNL1        0.0058
      6 C          63.0276   90.7628   10.6296 C.ar    1  UNL1        0.0148
      7 C          60.3697   88.0767   10.3321 C.2     1  UNL1        0.2261
      8 O          59.9361   88.1855   11.7640 O.2     1  UNL1       -0.2748
      9 N          61.6789   88.6662    9.8981 N.am    1  UNL1       -0.2839
     10 H          61.9635   88.5948    8.9583 H       1  UNL1        0.1549
     11 C          59.4940   87.3784    9.3343 C.3     1  UNL1        0.0854
     12 C          59.1860   87.0193    7.2665 C.3     1  UNL1        0.0005
     13 C          60.1022   86.4614    8.3149 C.3     1  UNL1        0.0086
     14 C          61.0185   85.9035    9.3633 C.3     1  UNL1        0.0005
     15 C          60.7104   85.5444    7.2954 C.3     1  UNL1        0.0005
     16 C          65.1816   91.4595   13.8892 C.2     1  UNL1        0.2509
     17 O          64.6401   91.8173   15.2415 O.2     1  UNL1       -0.2698
     18 N          66.5987   91.8000   13.5347 N.am    1  UNL1       -0.2606
     19 H          66.9541   91.5651   12.6472 H       1  UNL1        0.1571
     20 C          67.4743   92.4983   14.5325 C.ar    1  UNL1        0.1658
     21 N          67.6291   93.9826   14.6834 N.ar    1  UNL1       -0.2224
     22 C          68.5994   94.2366   15.7987 C.ar    1  UNL1        0.1079
     23 C          69.0444   92.9092   16.3372 C.ar    1  UNL1        0.0588
     24 S          68.3491   91.8348   15.5547 S.2     1  UNL1       -0.0508
@<TRIPOS>BOND
     1    12    13    1
     2    13    14    1
     3    13    15    1
     4    13    11    1
     5    11     7    1
     6     7     8    2
     7     7     9   am
     8     9     1    1
     9     1     2   ar
    10     2     3   ar
    11     3     4   ar
    12     4    16    1
    13    16    17    2
    14    16    18   am
    15    18    20    1
    16    20    21   ar
    17    21    22   ar
    18    22    23   ar
    19    23    24   ar
    20     4     5   ar
    21     5     6   ar
    22     6     1   ar
    23    24    20   ar
    24     9    10    1
    25    18    19    1
@<TRIPOS>MOLECULE
*****
 24 25 0 0 0
SMALL
GASTEIGER

@<TRIPOS>ATOM
      1 C          62.3993   90.0893   10.6794 C.ar    1  UNL1        0.0503
      2 C          63.1857   91.1525    9.9716 C.ar    1  UNL1        0.0148
      3 C          64.2634   91.8988   10.7007 C.ar    1  UNL1        0.0058
      4 C          64.5548   91.5819   12.1376 C.ar    1  UNL1        0.0538
      5 C          63.7683   90.5187   12.8454 C.ar    1  UNL1        0.0058
      6 C          62.6906   89.7724   12.1163 C.ar    1  UNL1        0.0148
      7 C          60.9560   87.9509   10.3727 C.2     1  UNL1        0.2261
      8 O          61.6683   87.3050   11.5241 O.2     1  UNL1       -0.2748
      9 N          61.3216   89.3430    9.9504 N.am    1  UNL1       -0.2839
     10 H          60.8541   89.7669    9.1947 H       1  UNL1        0.1549
     11 C          59.8783   87.2046    9.6436 C.3     1  UNL1        0.0854
     12 C          61.4785   85.9319    9.0784 C.3     1  UNL1        0.0005
     13 C          60.2160   86.4043    8.4206 C.3     1  UNL1        0.0086
     14 C          58.9534   86.8767    7.7629 C.3     1  UNL1        0.0005
     15 C          60.5536   85.6040    7.1977 C.3     1  UNL1        0.0005
     16 C          65.6325   92.3282   12.8666 C.2     1  UNL1        0.2509
     17 O          65.8887   93.7724   12.5526 O.2     1  UNL1       -0.2698
     18 N          66.4540   91.6304   13.9097 N.am    1  UNL1       -0.2606
     19 H          66.2858   90.6825   14.1158 H       1  UNL1        0.1571
     20 C          67.5317   92.3767   14.6387 C.ar    1  UNL1        0.1658
     21 N          68.9782   92.4426   14.2471 N.ar    1  UNL1       -0.2224
     22 C          69.6926   93.2947   15.2538 C.ar    1  UNL1        0.1079
     23 C          68.6877   93.7555   16.2676 C.ar    1  UNL1        0.0588
     24 S          67.3522   93.1882   15.8875 S.2     1  UNL1       -0.0508
@<TRIPOS>BOND
     1    12    13    1
     2    13    14    1
     3    13    15    1
     4    13    11    1
     5    11     7    1
     6     7     8    2
     7     7     9   am
     8     9     1    1
     9     1     2   ar
    10     2     3   ar
    11     3     4   ar
    12     4    16    1
    13    16    17    2
    14    16    18   am
    15    18    20    1
    16    20    21   ar
    17    21    22   ar
    18    22    23   ar
    19    23    24   ar
    20     4     5   ar
    21     5     6   ar
    22     6     1   ar
    23    24    20   ar
    24     9    10    1
    25    18    19    1
@<TRIPOS>MOLECULE
*****
 24 25 0 0 0
SMALL
GASTEIGER

@<TRIPOS>ATOM
      1 C          64.5138   90.9701   13.6754 C.ar    1  UNL1        0.0503
      2 C          63.8453   91.4749   12.4311 C.ar    1  UNL1        0.0148
      3 C          63.0562   90.5343   11.5693 C.ar    1  UNL1        0.0058
      4 C          62.9355   89.0889   11.9519 C.ar    1  UNL1        0.0538
      5 C          63.6040   88.5842   13.1962 C.ar    1  UNL1        0.0058
      6 C          64.3931   89.5248   14.0580 C.ar    1  UNL1        0.0148
      7 C          66.5069   92.6089   13.9780 C.2     1  UNL1        0.2261
      8 O          66.9220   92.3665   12.5570 O.2     1  UNL1       -0.2748
      9 N          65.3029   91.9107   14.5371 N.am    1  UNL1       -0.2839
     10 H          65.0305   92.0698   15.4697 H       1  UNL1        0.1549
     11 C          67.2960   93.5495   14.8397 C.3     1  UNL1        0.0854
     12 C          68.9182   94.4281   15.8868 C.3     1  UNL1        0.0005
     13 C          68.4195   93.0278   15.6858 C.3     1  UNL1        0.0086
     14 C          67.9208   91.6276   15.4848 C.3     1  UNL1        0.0005
     15 C          69.5429   92.5063   16.5319 C.3     1  UNL1        0.0005
     16 C          62.1464   88.1484   11.0902 C.2     1  UNL1        0.2509
     17 O          61.8922   86.7437   11.5507 O.2     1  UNL1       -0.2698
     18 N          61.6116   88.6124    9.7679 N.am    1  UNL1       -0.2606
     19 H          61.7785   89.5344    9.4655 H       1  UNL1        0.1571
     20 C          60.8225   87.6719    8.9061 C.ar    1  UNL1        0.1658
     21 N          61.2958   86.3483    8.3827 N.ar    1  UNL1       -0.2224
     22 C          60.1874   85.7481    7.5695 C.ar    1  UNL1        0.1079
     23 C          59.0290   86.7008    7.5904 C.ar    1  UNL1        0.0588
     24 S          59.4214   87.8898    8.4165 S.2     1  UNL1       -0.0508
@<TRIPOS>BOND
     1    12    13    1
     2    13    14    1
     3    13    15    1
     4    13    11    1
     5    11     7    1
     6     7     8    2
     7     7     9   am
     8     9     1    1
     9     1     2   ar
    10     2     3   ar
    11     3     4   ar
    12     4    16    1
    13    16    17    2
    14    16    18   am
    15    18    20    1
    16    20    21   ar
    17    21    22   ar
    18    22    23   ar
    19    23    24   ar
    20     4     5   ar
    21     5     6   ar
    22     6     1   ar
    23    24    20   ar
    24     9    10    1
    25    18    19    1
@<TRIPOS>MOLECULE
*****
 24 25 0 0 0
SMALL
GASTEIGER

@<TRIPOS>ATOM
      1 C          63.0510   86.6512   12.9145 C.ar    1  UNL1        0.0503
      2 C          63.8254   86.6252   14.1989 C.ar    1  UNL1        0.0148
      3 C          64.4529   87.8832   14.7220 C.ar    1  UNL1        0.0058
      4 C          64.3060   89.1672   13.9607 C.ar    1  UNL1        0.0538
      5 C          63.5316   89.1933   12.6764 C.ar    1  UNL1        0.0058
      6 C          62.9041   87.9352   12.1533 C.ar    1  UNL1        0.0148
      7 C          63.1792   84.0986   12.4477 C.2     1  UNL1        0.2261
      8 O          64.5624   84.0621   13.0270 O.2     1  UNL1       -0.2748
      9 N          62.4235   85.3931   12.3915 N.am    1  UNL1       -0.2839
     10 H          61.5157   85.4171   12.0113 H       1  UNL1        0.1549
     11 C          62.5517   82.8406   11.9246 C.3     1  UNL1        0.0854
     12 C          62.0748   82.3385   13.9297 C.3     1  UNL1        0.0005
     13 C          62.5960   81.5841   12.7427 C.3     1  UNL1        0.0086
     14 C          63.1173   80.8296   11.5557 C.3     1  UNL1        0.0005
     15 C          62.6404   80.3276   13.5608 C.3     1  UNL1        0.0005
     16 C          64.9335   90.4253   14.4838 C.2     1  UNL1        0.2509
     17 O          64.1508   91.3363   15.3824 O.2     1  UNL1       -0.2698
     18 N          66.3436   90.7723   14.1083 N.am    1  UNL1       -0.2606
     19 H          66.8573   90.1744   13.5186 H       1  UNL1        0.1571
     20 C          66.9711   92.0303   14.6314 C.ar    1  UNL1        0.1658
     21 N          66.6594   93.4257   14.1778 N.ar    1  UNL1       -0.2224
     22 C          67.5161   94.3717   14.9660 C.ar    1  UNL1        0.1079
     23 C          68.3573   93.5609   15.9068 C.ar    1  UNL1        0.0588
     24 S          68.0205   92.1139   15.7001 S.2     1  UNL1       -0.0508
@<TRIPOS>BOND
     1    12    13    1
     2    13    14    1
     3    13    15    1
     4    13    11    1
     5    11     7    1
     6     7     8    2
     7     7     9   am
     8     9     1    1
     9     1     2   ar
    10     2     3   ar
    11     3     4   ar
    12     4    16    1
    13    16    17    2
    14    16    18   am
    15    18    20    1
    16    20    21   ar
    17    21    22   ar
    18    22    23   ar
    19    23    24   ar
    20     4     5   ar
    21     5     6   ar
    22     6     1   ar
    23    24    20   ar
    24     9    10    1
    25    18    19    1
@<TRIPOS>MOLECULE
*****
 24 25 0 0 0
SMALL
GASTEIGER

@<TRIPOS>ATOM
      1 C          63.4686   86.5936   13.8692 C.ar    1  UNL1        0.0503
      2 C          63.1197   87.3275   12.6084 C.ar    1  UNL1        0.0148
      3 C          63.4833   88.7749   12.4580 C.ar    1  UNL1        0.0058
      4 C          64.1958   89.4885   13.5684 C.ar    1  UNL1        0.0538
      5 C          64.5447   88.7547   14.8292 C.ar    1  UNL1        0.0058
      6 C          64.1811   87.3072   14.9796 C.ar    1  UNL1        0.0148
      7 C          64.1773   84.1239   14.2545 C.2     1  UNL1        0.2261
      8 O          65.6133   84.5492   14.3391 O.2     1  UNL1       -0.2748
      9 N          63.1050   85.1461   14.0195 N.am    1  UNL1       -0.2839
     10 H          62.1625   84.8670   13.9640 H       1  UNL1        0.1549
     11 C          63.8137   82.6765   14.4049 C.3     1  UNL1        0.0854
     12 C          61.9866   81.6412   14.1054 C.3     1  UNL1        0.0005
     13 C          63.1890   81.9371   13.2589 C.3     1  UNL1        0.0086
     14 C          64.3914   82.2331   12.4124 C.3     1  UNL1        0.0005
     15 C          62.5643   81.1978   12.1130 C.3     1  UNL1        0.0005
     16 C          64.5594   90.9360   13.4180 C.2     1  UNL1        0.2509
     17 O          64.2276   91.9100   14.5094 O.2     1  UNL1       -0.2698
     18 N          65.2549   91.4095   12.1763 N.am    1  UNL1       -0.2606
     19 H          65.4727   90.7703   11.4599 H       1  UNL1        0.1571
     20 C          65.6185   92.8570   12.0259 C.ar    1  UNL1        0.1658
     21 N          66.1305   93.7550   13.1128 N.ar    1  UNL1       -0.2224
     22 C          66.3624   95.1136   12.5209 C.ar    1  UNL1        0.1079
     23 C          65.9937   95.0553   11.0681 C.ar    1  UNL1        0.0588
     24 S          65.5339   93.6606   10.7621 S.2     1  UNL1       -0.0508
@<TRIPOS>BOND
     1    12    13    1
     2    13    14    1
     3    13    15    1
     4    13    11    1
     5    11     7    1
     6     7     8    2
     7     7     9   am
     8     9     1    1
     9     1     2   ar
    10     2     3   ar
    11     3     4   ar
    12     4    16    1
    13    16    17    2
    14    16    18   am
    15    18    20    1
    16    20    21   ar
    17    21    22   ar
    18    22    23   ar
    19    23    24   ar
    20     4     5   ar
    21     5     6   ar
    22     6     1   ar
    23    24    20   ar
    24     9    10    1
    25    18    19    1
@<TRIPOS>MOLECULE
*****
 24 25 0 0 0
SMALL
GASTEIGER

@<TRIPOS>ATOM
      1 C          64.2251   90.4085   13.1901 C.ar    1  UNL1        0.0503
      2 C          64.7345   89.8475   14.4845 C.ar    1  UNL1        0.0148
      3 C          64.5436   88.3932   14.7985 C.ar    1  UNL1        0.0058
      4 C          63.8433   87.4999   13.8179 C.ar    1  UNL1        0.0538
      5 C          63.3339   88.0609   12.5235 C.ar    1  UNL1        0.0058
      6 C          63.5247   89.5152   12.2095 C.ar    1  UNL1        0.0148
      7 C          65.7924   92.4587   12.8898 C.2     1  UNL1        0.2261
      8 O          66.9781   91.6002   13.2175 O.2     1  UNL1       -0.2748
      9 N          64.4159   91.8628   12.8761 N.am    1  UNL1       -0.2839
     10 H          63.6378   92.4263   12.6611 H       1  UNL1        0.1549
     11 C          65.9833   93.9130   12.5759 C.3     1  UNL1        0.0854
     12 C          66.1431   95.7814   11.5842 C.3     1  UNL1        0.0005
     13 C          66.2644   94.3456   11.1674 C.3     1  UNL1        0.0086
     14 C          66.3857   92.9098   10.7506 C.3     1  UNL1        0.0005
     15 C          66.5455   94.7783    9.7589 C.3     1  UNL1        0.0005
     16 C          63.6524   86.0456   14.1319 C.2     1  UNL1        0.2509
     17 O          63.7676   85.5624   15.5472 O.2     1  UNL1       -0.2698
     18 N          63.3463   85.0745   13.0305 N.am    1  UNL1       -0.2606
     19 H          63.2707   85.3916   12.1015 H       1  UNL1        0.1571
     20 C          63.1554   83.6202   13.3444 C.ar    1  UNL1        0.1658
     21 N          62.0695   83.0379   14.1998 N.ar    1  UNL1       -0.2224
     22 C          62.2599   81.5507   14.2421 C.ar    1  UNL1        0.1079
     23 C          63.4635   81.2137   13.4128 C.ar    1  UNL1        0.0588
     24 S          64.0170   82.4927   12.8580 S.2     1  UNL1       -0.0508
@<TRIPOS>BOND
     1    12    13    1
     2    13    14    1
     3    13    15    1
     4    13    11    1
     5    11     7    1
     6     7     8    2
     7     7     9   am
     8     9     1    1
     9     1     2   ar
    10     2     3   ar
    11     3     4   ar
    12     4    16    1
    13    16    17    2
    14    16    18   am
    15    18    20    1
    16    20    21   ar
    17    21    22   ar
    18    22    23   ar
    19    23    24   ar
    20     4     5   ar
    21     5     6   ar
    22     6     1   ar
    23    24    20   ar
    24     9    10    1
    25    18    19    1
@<TRIPOS>MOLECULE
*****
 24 25 0 0 0
SMALL
GASTEIGER

@<TRIPOS>ATOM
      1 C          62.8451   88.5136   11.8192 C.ar    1  UNL1        0.0503
      2 C          63.5890   89.0174   13.0204 C.ar    1  UNL1        0.0148
      3 C          64.2779   90.3489   12.9718 C.ar    1  UNL1        0.0058
      4 C          64.2229   91.1766   11.7221 C.ar    1  UNL1        0.0538
      5 C          63.4791   90.6728   10.5209 C.ar    1  UNL1        0.0058
      6 C          62.7901   89.3413   10.5695 C.ar    1  UNL1        0.0148
      7 C          62.7492   86.0594   12.6665 C.2     1  UNL1        0.2261
      8 O          64.0314   86.2683   13.4166 O.2     1  UNL1       -0.2748
      9 N          62.1561   87.1820   11.8678 N.am    1  UNL1       -0.2839
     10 H          61.3146   87.0449   11.3755 H       1  UNL1        0.1549
     11 C          62.0603   84.7278   12.7151 C.3     1  UNL1        0.0854
     12 C          62.5648   83.0918   13.9676 C.3     1  UNL1        0.0005
     13 C          62.8536   83.4663   12.5441 C.3     1  UNL1        0.0086
     14 C          63.1424   83.8407   11.1207 C.3     1  UNL1        0.0005
     15 C          63.6469   82.2047   12.3733 C.3     1  UNL1        0.0005
     16 C          64.9119   92.5082   11.6735 C.2     1  UNL1        0.2509
     17 O          65.4163   93.1382   12.9378 O.2     1  UNL1       -0.2698
     18 N          65.0964   93.2097   10.3606 N.am    1  UNL1       -0.2606
     19 H          64.7653   92.7962    9.5307 H       1  UNL1        0.1571
     20 C          65.7853   94.5412   10.3120 C.ar    1  UNL1        0.1658
     21 N          65.4201   95.7528   11.1174 N.ar    1  UNL1       -0.2224
     22 C          66.3695   96.8554   10.7526 C.ar    1  UNL1        0.1079
     23 C          67.3215   96.3252    9.7218 C.ar    1  UNL1        0.0588
     24 S          66.9605   94.8950    9.4494 S.2     1  UNL1       -0.0508
@<TRIPOS>BOND
     1    12    13    1
     2    13    14    1
     3    13    15    1
     4    13    11    1
     5    11     7    1
     6     7     8    2
     7     7     9   am
     8     9     1    1
     9     1     2   ar
    10     2     3   ar
    11     3     4   ar
    12     4    16    1
    13    16    17    2
    14    16    18   am
    15    18    20    1
    16    20    21   ar
    17    21    22   ar
    18    22    23   ar
    19    23    24   ar
    20     4     5   ar
    21     5     6   ar
    22     6     1   ar
    23    24    20   ar
    24     9    10    1
    25    18    19    1
