@<TRIPOS>MOLECULE
*****
 25 28 0 0 0
SMALL
GASTEIGER

@<TRIPOS>ATOM
      1 O          64.1782   91.8897   16.6565 O.2     1  UNL1       -0.2699
      2 C          64.3903   90.9362   15.5181 C.2     1  UNL1        0.2494
      3 N          63.9430   89.5097   15.6413 N.am    1  UNL1       -0.2698
      4 C          63.2836   89.0368   16.9028 C.3     1  UNL1        0.1021
      5 C          62.8363   87.6104   17.0260 C.3     1  UNL1        0.0874
      6 C          63.0485   86.6569   15.8876 C.ar    1  UNL1        0.1415
      7 O          62.7156   85.2039   15.7200 O.2     1  UNL1       -0.4380
      8 C          63.1692   84.7789   14.3549 C.ar    1  UNL1        0.2471
      9 N          63.7825   85.9692   13.6788 N.ar    1  UNL1       -0.2100
     10 C          63.7079   87.1298   14.6261 C.ar    1  UNL1        0.1124
     11 C          64.1551   88.5563   14.5029 C.3     1  UNL1        0.1425
     12 C          65.0497   91.4092   14.2566 C.ar    1  UNL1        0.0558
     13 C          66.5185   91.7136   14.2467 C.ar    1  UNL1        0.0047
     14 C          67.1779   92.1866   12.9851 C.ar    1  UNL1        0.0025
     15 C          66.3685   92.3551   11.7335 C.ar    1  UNL1        0.0296
     16 C          64.8998   92.0507   11.7434 C.ar    1  UNL1        0.1403
     17 F          64.0904   92.2192   10.4918 F       1  UNL1       -0.2042
     18 C          64.2404   91.5777   13.0049 C.ar    1  UNL1        0.0341
     19 C          63.0335   83.4048   13.7688 C.ar    1  UNL1        0.1348
     20 C          63.1216   83.2108   12.2840 C.ar    1  UNL1        0.0262
     21 C          62.9859   81.8368   11.6978 C.ar    1  UNL1        0.0329
     22 C          62.7620   80.6568   12.5964 C.ar    1  UNL1        0.1592
     23 F          62.6263   79.2827   12.0102 F       1  UNL1       -0.2025
     24 C          62.6739   80.8508   14.0812 C.ar    1  UNL1        0.1285
     25 N          62.8096   82.2248   14.6674 N.ar    1  UNL1       -0.2368
@<TRIPOS>BOND
     1     1     2    2
     2     2    12    1
     3    12    13   ar
     4    13    14   ar
     5    14    15   ar
     6    15    16   ar
     7    16    17    1
     8    16    18   ar
     9     2     3   am
    10     3     4    1
    11     4     5    1
    12     5     6    1
    13     6     7   ar
    14     7     8   ar
    15     8    19    1
    16    19    20   ar
    17    20    21   ar
    18    21    22   ar
    19    22    23    1
    20    22    24   ar
    21    24    25   ar
    22     8     9   ar
    23     9    10   ar
    24    10    11    1
    25    18    12   ar
    26    11     3    1
    27    10     6   ar
    28    25    19   ar
@<TRIPOS>MOLECULE
*****
 25 28 0 0 0
SMALL
GASTEIGER

@<TRIPOS>ATOM
      1 O          62.5243   85.9614   17.8868 O.2     1  UNL1       -0.2699
      2 C          63.1223   86.2993   16.5533 C.2     1  UNL1        0.2494
      3 N          63.4136   87.7284   16.2024 N.am    1  UNL1       -0.2698
      4 C          63.1070   88.8194   17.1850 C.3     1  UNL1        0.1021
      5 C          63.3983   90.2484   16.8341 C.3     1  UNL1        0.0874
      6 C          63.9962   90.5863   15.5006 C.ar    1  UNL1        0.1415
      7 O          64.3898   91.8937   14.8793 O.2     1  UNL1       -0.4380
      8 C          64.9396   91.6107   13.5128 C.ar    1  UNL1        0.2471
      9 N          64.8859   90.1283   13.2894 N.ar    1  UNL1       -0.2100
     10 C          64.3029   89.4953   14.5180 C.ar    1  UNL1        0.1124
     11 C          64.0115   88.0663   14.8689 C.3     1  UNL1        0.1425
     12 C          63.4289   85.2083   15.5706 C.ar    1  UNL1        0.0558
     13 C          64.7458   85.1940   14.8526 C.ar    1  UNL1        0.0047
     14 C          65.0524   84.1028   13.8700 C.ar    1  UNL1        0.0025
     15 C          64.0421   83.0262   13.6054 C.ar    1  UNL1        0.0296
     16 C          62.7252   83.0405   14.3234 C.ar    1  UNL1        0.1403
     17 F          61.7150   81.9639   14.0588 F       1  UNL1       -0.2042
     18 C          62.4186   84.1316   15.3060 C.ar    1  UNL1        0.0341
     19 C          65.4530   92.6308   12.5402 C.ar    1  UNL1        0.1348
     20 C          65.4864   92.3185   11.0735 C.ar    1  UNL1        0.0262
     21 C          65.9998   93.3386   10.1009 C.ar    1  UNL1        0.0329
     22 C          66.4798   94.6709   10.5952 C.ar    1  UNL1        0.1592
     23 F          66.9933   95.6910    9.6226 F       1  UNL1       -0.2025
     24 C          66.4465   94.9832   12.0619 C.ar    1  UNL1        0.1285
     25 N          65.9331   93.9632   13.0344 N.ar    1  UNL1       -0.2368
@<TRIPOS>BOND
     1     1     2    2
     2     2    12    1
     3    12    13   ar
     4    13    14   ar
     5    14    15   ar
     6    15    16   ar
     7    16    17    1
     8    16    18   ar
     9     2     3   am
    10     3     4    1
    11     4     5    1
    12     5     6    1
    13     6     7   ar
    14     7     8   ar
    15     8    19    1
    16    19    20   ar
    17    20    21   ar
    18    21    22   ar
    19    22    23    1
    20    22    24   ar
    21    24    25   ar
    22     8     9   ar
    23     9    10   ar
    24    10    11    1
    25    18    12   ar
    26    11     3    1
    27    10     6   ar
    28    25    19   ar
@<TRIPOS>MOLECULE
*****
 25 28 0 0 0
SMALL
GASTEIGER

@<TRIPOS>ATOM
      1 O          63.1477   91.9261   10.6357 O.2     1  UNL1       -0.2699
      2 C          63.4489   90.8569   11.6437 C.2     1  UNL1        0.2494
      3 N          63.0603   89.4347   11.3673 N.am    1  UNL1       -0.2698
      4 C          62.3706   89.0817   10.0829 C.3     1  UNL1        0.1021
      5 C          61.9821   87.6595    9.8066 C.3     1  UNL1        0.0874
      6 C          62.2833   86.5903   10.8146 C.ar    1  UNL1        0.1415
      7 O          62.0222   85.1132   10.8193 O.2     1  UNL1       -0.4380
      8 C          62.5506   84.5533   12.1067 C.ar    1  UNL1        0.2471
      9 N          63.1382   85.6843   12.8975 N.ar    1  UNL1       -0.2100
     10 C          62.9730   86.9433   12.0989 C.ar    1  UNL1        0.1124
     11 C          63.3615   88.3655   12.3753 C.3     1  UNL1        0.1425
     12 C          64.1386   91.2099   12.9281 C.ar    1  UNL1        0.0558
     13 C          65.4038   92.0152   12.9032 C.ar    1  UNL1        0.0047
     14 C          66.0935   92.3682   14.1877 C.ar    1  UNL1        0.0025
     15 C          65.5180   91.9158   15.4969 C.ar    1  UNL1        0.0296
     16 C          64.2528   91.1105   15.5218 C.ar    1  UNL1        0.1403
     17 F          63.6773   90.6581   16.8310 F       1  UNL1       -0.2042
     18 C          63.5631   90.7575   14.2374 C.ar    1  UNL1        0.0341
     19 C          62.5002   83.1148   12.5291 C.ar    1  UNL1        0.1348
     20 C          62.8974   82.0359   11.5658 C.ar    1  UNL1        0.0262
     21 C          62.8471   80.5975   11.9881 C.ar    1  UNL1        0.0329
     22 C          62.3994   80.2380   13.3739 C.ar    1  UNL1        0.1592
     23 F          62.3490   78.7996   13.7963 F       1  UNL1       -0.2025
     24 C          62.0021   81.3170   14.3373 C.ar    1  UNL1        0.1285
     25 N          62.0525   82.7553   13.9149 N.ar    1  UNL1       -0.2368
@<TRIPOS>BOND
     1     1     2    2
     2     2    12    1
     3    12    13   ar
     4    13    14   ar
     5    14    15   ar
     6    15    16   ar
     7    16    17    1
     8    16    18   ar
     9     2     3   am
    10     3     4    1
    11     4     5    1
    12     5     6    1
    13     6     7   ar
    14     7     8   ar
    15     8    19    1
    16    19    20   ar
    17    20    21   ar
    18    21    22   ar
    19    22    23    1
    20    22    24   ar
    21    24    25   ar
    22     8     9   ar
    23     9    10   ar
    24    10    11    1
    25    18    12   ar
    26    11     3    1
    27    10     6   ar
    28    25    19   ar
@<TRIPOS>MOLECULE
*****
 25 28 0 0 0
SMALL
GASTEIGER

@<TRIPOS>ATOM
      1 O          58.4765   87.1687    7.3613 O.2     1  UNL1       -0.2699
      2 C          59.2842   88.4168    7.5609 C.2     1  UNL1        0.2494
      3 N          60.1814   88.5463    8.7561 N.am    1  UNL1       -0.2698
      4 C          60.2709   87.4278    9.7515 C.3     1  UNL1        0.1021
      5 C          61.1680   87.5574   10.9466 C.3     1  UNL1        0.0874
      6 C          61.9757   88.8054   11.1463 C.ar    1  UNL1        0.1415
      7 O          62.9396   89.2162   12.2198 O.2     1  UNL1       -0.4380
      8 C          63.4458   90.5886   11.8878 C.ar    1  UNL1        0.2471
      9 N          62.7948   91.0260   10.6092 N.ar    1  UNL1       -0.2100
     10 C          61.8863   89.9240   10.1509 C.ar    1  UNL1        0.1124
     11 C          60.9892   89.7944    8.9558 C.3     1  UNL1        0.1425
     12 C          59.1948   89.5353    6.5655 C.ar    1  UNL1        0.0558
     13 C          60.4386   90.0554    5.9080 C.ar    1  UNL1        0.0047
     14 C          60.3492   91.1740    4.9126 C.ar    1  UNL1        0.0025
     15 C          59.0159   91.7724    4.5747 C.ar    1  UNL1        0.0296
     16 C          57.7720   91.2523    5.2322 C.ar    1  UNL1        0.1403
     17 F          56.4387   91.8507    4.8943 F       1  UNL1       -0.2042
     18 C          57.8615   90.1337    6.2276 C.ar    1  UNL1        0.0341
     19 C          64.4301   91.3841   12.6931 C.ar    1  UNL1        0.1348
     20 C          64.7173   91.0033   14.1153 C.ar    1  UNL1        0.0262
     21 C          65.7016   91.7986   14.9206 C.ar    1  UNL1        0.0329
     22 C          66.3987   92.9748   14.3037 C.ar    1  UNL1        0.1592
     23 F          67.3830   93.7702   15.1090 F       1  UNL1       -0.2025
     24 C          66.1115   93.3556   12.8815 C.ar    1  UNL1        0.1285
     25 N          65.1272   92.5603   12.0763 N.ar    1  UNL1       -0.2368
@<TRIPOS>BOND
     1     1     2    2
     2     2    12    1
     3    12    13   ar
     4    13    14   ar
     5    14    15   ar
     6    15    16   ar
     7    16    17    1
     8    16    18   ar
     9     2     3   am
    10     3     4    1
    11     4     5    1
    12     5     6    1
    13     6     7   ar
    14     7     8   ar
    15     8    19    1
    16    19    20   ar
    17    20    21   ar
    18    21    22   ar
    19    22    23    1
    20    22    24   ar
    21    24    25   ar
    22     8     9   ar
    23     9    10   ar
    24    10    11    1
    25    18    12   ar
    26    11     3    1
    27    10     6   ar
    28    25    19   ar
@<TRIPOS>MOLECULE
*****
 25 28 0 0 0
SMALL
GASTEIGER

@<TRIPOS>ATOM
      1 O          60.0971   86.3842    9.7416 O.2     1  UNL1       -0.2699
      2 C          61.3594   86.5044   10.5429 C.2     1  UNL1        0.2494
      3 N          61.8122   87.8483   11.0319 N.am    1  UNL1       -0.2698
      4 C          61.0027   89.0719   10.7195 C.3     1  UNL1        0.1021
      5 C          61.4555   90.4157   11.2084 C.3     1  UNL1        0.0874
      6 C          62.7179   90.5359   12.0097 C.ar    1  UNL1        0.1415
      7 O          63.4095   91.7180   12.6216 O.2     1  UNL1       -0.4380
      8 C          64.6464   91.2250   13.3122 C.ar    1  UNL1        0.2471
      9 N          64.7193   89.7382   13.1270 N.ar    1  UNL1       -0.2100
     10 C          63.5274   89.3124   12.3221 C.ar    1  UNL1        0.1124
     11 C          63.0745   87.9686   11.8332 C.3     1  UNL1        0.1425
     12 C          62.1689   85.2809   10.8553 C.ar    1  UNL1        0.0558
     13 C          62.9982   84.6367    9.7842 C.ar    1  UNL1        0.0047
     14 C          63.8077   83.4131   10.0967 C.ar    1  UNL1        0.0025
     15 C          63.7879   82.8338   11.4801 C.ar    1  UNL1        0.0296
     16 C          62.9586   83.4780   12.5512 C.ar    1  UNL1        0.1403
     17 F          62.9387   82.8986   13.9346 F       1  UNL1       -0.2042
     18 C          62.1491   84.7015   12.2388 C.ar    1  UNL1        0.0341
     19 C          65.6367   92.0703   14.0571 C.ar    1  UNL1        0.1348
     20 C          66.2294   91.5740   15.3426 C.ar    1  UNL1        0.0262
     21 C          67.2197   92.4192   16.0875 C.ar    1  UNL1        0.0329
     22 C          67.6172   93.7608   15.5470 C.ar    1  UNL1        0.1592
     23 F          68.6075   94.6061   16.2919 F       1  UNL1       -0.2025
     24 C          67.0245   94.2571   14.2615 C.ar    1  UNL1        0.1285
     25 N          66.0342   93.4118   13.5166 N.ar    1  UNL1       -0.2368
@<TRIPOS>BOND
     1     1     2    2
     2     2    12    1
     3    12    13   ar
     4    13    14   ar
     5    14    15   ar
     6    15    16   ar
     7    16    17    1
     8    16    18   ar
     9     2     3   am
    10     3     4    1
    11     4     5    1
    12     5     6    1
    13     6     7   ar
    14     7     8   ar
    15     8    19    1
    16    19    20   ar
    17    20    21   ar
    18    21    22   ar
    19    22    23    1
    20    22    24   ar
    21    24    25   ar
    22     8     9   ar
    23     9    10   ar
    24    10    11    1
    25    18    12   ar
    26    11     3    1
    27    10     6   ar
    28    25    19   ar
@<TRIPOS>MOLECULE
*****
 25 28 0 0 0
SMALL
GASTEIGER

@<TRIPOS>ATOM
      1 O          60.3233   86.4400    9.9042 O.2     1  UNL1       -0.2699
      2 C          61.5193   86.5537   10.8023 C.2     1  UNL1        0.2494
      3 N          62.0293   87.9057   11.2047 N.am    1  UNL1       -0.2698
      4 C          61.3432   89.1441   10.7091 C.3     1  UNL1        0.1021
      5 C          61.8532   90.4961   11.1116 C.3     1  UNL1        0.0874
      6 C          63.0493   90.6097   12.0096 C.ar    1  UNL1        0.1415
      7 O          63.7740   91.7972   12.5706 O.2     1  UNL1       -0.4380
      8 C          64.9081   91.2927   13.4128 C.ar    1  UNL1        0.2471
      9 N          64.8842   89.7934   13.3724 N.ar    1  UNL1       -0.2100
     10 C          63.7354   89.3713   12.5052 C.ar    1  UNL1        0.1124
     11 C          63.2254   88.0193   12.1028 C.3     1  UNL1        0.1425
     12 C          62.2054   85.3153   11.2978 C.ar    1  UNL1        0.0558
     13 C          62.0921   84.9215   12.7408 C.ar    1  UNL1        0.0047
     14 C          62.7783   83.6830   13.2363 C.ar    1  UNL1        0.0025
     15 C          63.5777   82.8385   12.2890 C.ar    1  UNL1        0.0296
     16 C          63.6910   83.2323   10.8460 C.ar    1  UNL1        0.1403
     17 F          64.4905   82.3877    9.8987 F       1  UNL1       -0.2042
     18 C          63.0049   84.4706   10.3504 C.ar    1  UNL1        0.0341
     19 C          65.8931   92.1389   14.1637 C.ar    1  UNL1        0.1348
     20 C          66.1946   93.5320   13.6965 C.ar    1  UNL1        0.0262
     21 C          67.1796   94.3782   14.4473 C.ar    1  UNL1        0.0329
     22 C          67.8631   93.8312   15.6653 C.ar    1  UNL1        0.1592
     23 F          68.8481   94.6774   16.4162 F       1  UNL1       -0.2025
     24 C          67.5615   92.4381   16.1326 C.ar    1  UNL1        0.1285
     25 N          66.5765   91.5920   15.3818 N.ar    1  UNL1       -0.2368
@<TRIPOS>BOND
     1     1     2    2
     2     2    12    1
     3    12    13   ar
     4    13    14   ar
     5    14    15   ar
     6    15    16   ar
     7    16    17    1
     8    16    18   ar
     9     2     3   am
    10     3     4    1
    11     4     5    1
    12     5     6    1
    13     6     7   ar
    14     7     8   ar
    15     8    19    1
    16    19    20   ar
    17    20    21   ar
    18    21    22   ar
    19    22    23    1
    20    22    24   ar
    21    24    25   ar
    22     8     9   ar
    23     9    10   ar
    24    10    11    1
    25    18    12   ar
    26    11     3    1
    27    10     6   ar
    28    25    19   ar
@<TRIPOS>MOLECULE
*****
 25 28 0 0 0
SMALL
GASTEIGER

@<TRIPOS>ATOM
      1 O          62.3505   83.9540   16.9072 O.2     1  UNL1       -0.2699
      2 C          62.9349   84.6224   15.6982 C.2     1  UNL1        0.2494
      3 N          63.2182   86.0953   15.7189 N.am    1  UNL1       -0.2698
      4 C          62.9171   86.8997   16.9486 C.3     1  UNL1        0.1021
      5 C          63.2004   88.3726   16.9693 C.3     1  UNL1        0.0874
      6 C          63.7848   89.0410   15.7603 C.ar    1  UNL1        0.1415
      7 O          64.1681   90.4654   15.4879 O.2     1  UNL1       -0.4380
      8 C          64.7061   90.5413   14.0897 C.ar    1  UNL1        0.2471
      9 N          64.6553   89.1638   13.4981 N.ar    1  UNL1       -0.2100
     10 C          64.0858   88.2366   14.5306 C.ar    1  UNL1        0.1124
     11 C          63.8025   86.7638   14.5099 C.3     1  UNL1        0.1425
     12 C          63.2360   83.8180   14.4684 C.ar    1  UNL1        0.0558
     13 C          64.2694   84.2978   13.4928 C.ar    1  UNL1        0.0047
     14 C          64.5704   83.4933   12.2630 C.ar    1  UNL1        0.0025
     15 C          63.8381   82.2092   12.0089 C.ar    1  UNL1        0.0296
     16 C          62.8047   81.7294   12.9846 C.ar    1  UNL1        0.1403
     17 F          62.0723   80.4453   12.7305 F       1  UNL1       -0.2042
     18 C          62.5036   82.5338   14.2143 C.ar    1  UNL1        0.0341
     19 C          65.2071   91.7776   13.4036 C.ar    1  UNL1        0.1348
     20 C          66.0055   92.7897   14.1706 C.ar    1  UNL1        0.0262
     21 C          66.5064   94.0259   13.4845 C.ar    1  UNL1        0.0329
     22 C          66.2090   94.2501   12.0316 C.ar    1  UNL1        0.1592
     23 F          66.7099   95.4864   11.3454 F       1  UNL1       -0.2025
     24 C          65.4106   93.2380   11.2646 C.ar    1  UNL1        0.1285
     25 N          64.9096   92.0017   11.9506 N.ar    1  UNL1       -0.2368
@<TRIPOS>BOND
     1     1     2    2
     2     2    12    1
     3    12    13   ar
     4    13    14   ar
     5    14    15   ar
     6    15    16   ar
     7    16    17    1
     8    16    18   ar
     9     2     3   am
    10     3     4    1
    11     4     5    1
    12     5     6    1
    13     6     7   ar
    14     7     8   ar
    15     8    19    1
    16    19    20   ar
    17    20    21   ar
    18    21    22   ar
    19    22    23    1
    20    22    24   ar
    21    24    25   ar
    22     8     9   ar
    23     9    10   ar
    24    10    11    1
    25    18    12   ar
    26    11     3    1
    27    10     6   ar
    28    25    19   ar
