@<TRIPOS>MOLECULE
*****
 32 34 0 0 0
SMALL
GASTEIGER

@<TRIPOS>ATOM
      1 N          61.6475   86.1257    9.9251 N.pl3   1  UNL1       -0.3043
      2 C          61.3198   86.0693   11.3878 C.3     1  UNL1        0.1123
      3 C          62.0678   85.1315   12.2883 C.3     1  UNL1        0.1148
      4 N          63.1436   84.2502   11.7262 N.am    1  UNL1       -0.2760
      5 C          63.8916   83.3124   12.6268 C.2     1  UNL1        0.2256
      6 O          64.9674   82.4311   12.0647 O.2     1  UNL1       -0.2749
      7 C          63.4713   84.3066   10.2636 C.3     1  UNL1        0.1148
      8 C          62.7232   85.2444    9.3630 C.3     1  UNL1        0.1123
      9 C          58.6552   89.8768    6.3230 C.3     1  UNL1        0.0310
     10 C          59.4033   88.9391    7.2235 C.ar    1  UNL1       -0.0220
     11 C          59.7001   87.5405    6.7698 C.ar    1  UNL1       -0.0030
     12 C          60.4481   86.6027    7.6704 C.ar    1  UNL1        0.0139
     13 C          60.8994   87.0635    9.0246 C.ar    1  UNL1        0.0451
     14 C          60.6026   88.4621    9.4783 C.ar    1  UNL1        0.0048
     15 C          59.8545   89.3998    8.5777 C.ar    1  UNL1       -0.0060
     16 C          61.0539   88.9229   10.8326 C.3     1  UNL1        0.0747
     17 N          60.1406   88.7850   12.0145 N.3     1  UNL1       -0.3188
     18 H          59.2615   88.3616   11.7173 H       1  UNL1        0.1191
     19 H          59.9571   89.7064   12.4117 H       1  UNL1        0.1191
     20 C          62.4183   89.5216   11.0049 C.3     1  UNL1        0.0184
     21 C          63.2905   89.0850   12.1446 C.3     1  UNL1        0.0017
     22 C          62.9107   90.5569   10.0376 C.3     1  UNL1        0.0017
     23 C          63.5640   83.2559   14.0894 C.3     1  UNL1        0.0811
     24 C          62.3701   82.4799   14.5611 C.3     1  UNL1        0.0099
     25 C          64.4302   83.9755   15.0804 C.3     1  UNL1        0.0354
     26 C          64.0975   85.3807   15.4861 C.ar    1  UNL1       -0.0217
     27 C          64.6048   86.5357   14.6744 C.ar    1  UNL1       -0.0034
     28 C          64.2721   87.9409   15.0801 C.ar    1  UNL1        0.0111
     29 C          63.4323   88.1913   16.2975 C.ar    1  UNL1        0.0577
     30 CL         63.0997   89.5965   16.7031 Cl      1  UNL1       -0.0822
     31 C          62.9251   87.0364   17.1092 C.ar    1  UNL1        0.0111
     32 C          63.2577   85.6310   16.7035 C.ar    1  UNL1       -0.0034
@<TRIPOS>BOND
     1     9    10    1
     2    10    11   ar
     3    11    12   ar
     4    12    13   ar
     5    13     1    1
     6     1     2    1
     7     2     3    1
     8     3     4    1
     9     4     5   am
    10     5     6    2
    11     5    23    1
    12    23    24    1
    13    23    25    1
    14    25    26    1
    15    26    27   ar
    16    27    28   ar
    17    28    29   ar
    18    29    30    1
    19    29    31   ar
    20    31    32   ar
    21     4     7    1
    22     7     8    1
    23    13    14   ar
    24    14    16    1
    25    16    17    1
    26    16    20    1
    27    20    21    1
    28    20    22    1
    29    14    15   ar
    30    15    10   ar
    31     8     1    1
    32    32    26   ar
    33    17    18    1
    34    17    19    1
@<TRIPOS>MOLECULE
*****
 32 34 0 0 0
SMALL
GASTEIGER

@<TRIPOS>ATOM
      1 N          64.3625   89.4360   14.6232 N.pl3   1  UNL1       -0.3043
      2 C          64.6074   88.1019   13.9828 C.3     1  UNL1        0.1123
      3 C          64.1183   86.8495   14.6479 C.3     1  UNL1        0.1148
      4 N          63.3843   86.9313   15.9535 N.am    1  UNL1       -0.2760
      5 C          62.8953   85.6789   16.6187 C.2     1  UNL1        0.2256
      6 O          62.1613   85.7607   17.9243 O.2     1  UNL1       -0.2749
      7 C          63.1395   88.2654   16.5939 C.3     1  UNL1        0.1148
      8 C          63.6286   89.5177   15.9288 C.3     1  UNL1        0.1123
      9 C          66.3188   94.4454   11.9626 C.3     1  UNL1        0.0310
     10 C          65.8297   93.1930   12.6277 C.ar    1  UNL1       -0.0220
     11 C          66.5431   92.6563   13.8331 C.ar    1  UNL1       -0.0030
     12 C          66.0540   91.4040   14.4983 C.ar    1  UNL1        0.0139
     13 C          64.8516   90.6883   13.9580 C.ar    1  UNL1        0.0451
     14 C          64.1382   91.2250   12.7527 C.ar    1  UNL1        0.0048
     15 C          64.6273   92.4774   12.0875 C.ar    1  UNL1       -0.0060
     16 C          62.9357   90.5094   12.2124 C.3     1  UNL1        0.0747
     17 N          61.8370   90.0830   13.1403 N.3     1  UNL1       -0.3188
     18 H          62.0715   90.3583   14.0940 H       1  UNL1        0.1191
     19 H          61.7285   89.0697   13.0958 H       1  UNL1        0.1191
     20 C          62.8319   90.2201   10.7442 C.3     1  UNL1        0.0184
     21 C          62.4662   88.8431   10.2751 C.3     1  UNL1        0.0017
     22 C          63.0938   91.3079    9.7451 C.3     1  UNL1        0.0017
     23 C          63.1401   84.3449   15.9783 C.3     1  UNL1        0.0811
     24 C          64.5035   83.7223   16.0397 C.3     1  UNL1        0.0099
     25 C          62.0216   83.6332   15.2763 C.3     1  UNL1        0.0354
     26 C          62.2988   82.8463   14.0297 C.ar    1  UNL1       -0.0217
     27 C          62.7204   83.5524   12.7752 C.ar    1  UNL1       -0.0034
     28 C          62.9975   82.7656   11.5287 C.ar    1  UNL1        0.0111
     29 C          62.8531   81.2725   11.5365 C.ar    1  UNL1        0.0577
     30 CL         63.1302   80.4856   10.2900 Cl      1  UNL1       -0.0822
     31 C          62.4315   80.5664   12.7910 C.ar    1  UNL1        0.0111
     32 C          62.1543   81.3533   14.0376 C.ar    1  UNL1       -0.0034
@<TRIPOS>BOND
     1     9    10    1
     2    10    11   ar
     3    11    12   ar
     4    12    13   ar
     5    13     1    1
     6     1     2    1
     7     2     3    1
     8     3     4    1
     9     4     5   am
    10     5     6    2
    11     5    23    1
    12    23    24    1
    13    23    25    1
    14    25    26    1
    15    26    27   ar
    16    27    28   ar
    17    28    29   ar
    18    29    30    1
    19    29    31   ar
    20    31    32   ar
    21     4     7    1
    22     7     8    1
    23    13    14   ar
    24    14    16    1
    25    16    17    1
    26    16    20    1
    27    20    21    1
    28    20    22    1
    29    14    15   ar
    30    15    10   ar
    31     8     1    1
    32    32    26   ar
    33    17    18    1
    34    17    19    1
@<TRIPOS>MOLECULE
*****
 32 34 0 0 0
SMALL
GASTEIGER

@<TRIPOS>ATOM
      1 N          63.4090   86.2042   13.3204 N.pl3   1  UNL1       -0.3043
      2 C          64.2575   86.8578   14.3704 C.3     1  UNL1        0.1123
      3 C          64.5224   88.3330   14.3094 C.3     1  UNL1        0.1148
      4 N          63.9386   89.1545   13.1985 N.am    1  UNL1       -0.2760
      5 C          64.2034   90.6297   13.1375 C.2     1  UNL1        0.2256
      6 O          63.6196   91.4512   12.0266 O.2     1  UNL1       -0.2749
      7 C          63.0900   88.5009   12.1485 C.3     1  UNL1        0.1148
      8 C          62.8252   87.0257   12.2094 C.3     1  UNL1        0.1123
      9 C          62.3497   80.3035   13.5642 C.3     1  UNL1        0.0310
     10 C          62.6145   81.7786   13.5032 C.ar    1  UNL1       -0.0220
     11 C          63.1193   82.5008   14.7171 C.ar    1  UNL1       -0.0030
     12 C          63.3841   83.9760   14.6562 C.ar    1  UNL1        0.0139
     13 C          63.1441   84.7290   13.3813 C.ar    1  UNL1        0.0451
     14 C          62.6394   84.0068   12.1674 C.ar    1  UNL1        0.0048
     15 C          62.3746   82.5317   12.2284 C.ar    1  UNL1       -0.0060
     16 C          62.3994   84.7599   10.8924 C.3     1  UNL1        0.0747
     17 N          61.2712   85.7444   10.8039 N.3     1  UNL1       -0.3188
     18 H          60.7755   85.7745   11.6948 H       1  UNL1        0.1191
     19 H          60.6275   85.4583   10.0662 H       1  UNL1        0.1191
     20 C          63.2876   84.5283    9.7061 C.3     1  UNL1        0.0184
     21 C          63.1298   85.3710    8.4752 C.3     1  UNL1        0.0017
     22 C          64.3337   83.4542    9.7507 C.3     1  UNL1        0.0017
     23 C          65.0520   91.2834   14.1875 C.3     1  UNL1        0.0811
     24 C          64.5227   91.4539   15.5806 C.3     1  UNL1        0.0099
     25 C          66.4300   91.7666   13.8444 C.3     1  UNL1        0.0354
     26 C          66.6602   92.5413   12.5808 C.ar    1  UNL1       -0.0217
     27 C          66.1280   93.9377   12.4496 C.ar    1  UNL1       -0.0034
     28 C          66.3582   94.7124   11.1860 C.ar    1  UNL1        0.0111
     29 C          67.1205   94.0908   10.0535 C.ar    1  UNL1        0.0577
     30 CL         67.3506   94.8655    8.7899 Cl      1  UNL1       -0.0822
     31 C          67.6526   92.6946   10.1846 C.ar    1  UNL1        0.0111
     32 C          67.4225   91.9198   11.4483 C.ar    1  UNL1       -0.0034
@<TRIPOS>BOND
     1     9    10    1
     2    10    11   ar
     3    11    12   ar
     4    12    13   ar
     5    13     1    1
     6     1     2    1
     7     2     3    1
     8     3     4    1
     9     4     5   am
    10     5     6    2
    11     5    23    1
    12    23    24    1
    13    23    25    1
    14    25    26    1
    15    26    27   ar
    16    27    28   ar
    17    28    29   ar
    18    29    30    1
    19    29    31   ar
    20    31    32   ar
    21     4     7    1
    22     7     8    1
    23    13    14   ar
    24    14    16    1
    25    16    17    1
    26    16    20    1
    27    20    21    1
    28    20    22    1
    29    14    15   ar
    30    15    10   ar
    31     8     1    1
    32    32    26   ar
    33    17    18    1
    34    17    19    1
@<TRIPOS>MOLECULE
*****
 32 34 0 0 0
SMALL
GASTEIGER

@<TRIPOS>ATOM
      1 N          62.4126   85.4217   11.9787 N.pl3   1  UNL1       -0.3043
      2 C          63.4052   86.4505   12.4328 C.3     1  UNL1        0.1123
      3 C          63.2300   87.8871   12.0385 C.3     1  UNL1        0.1148
      4 N          62.0621   88.2950   11.1902 N.am    1  UNL1       -0.2760
      5 C          61.8869   89.7316   10.7960 C.2     1  UNL1        0.2256
      6 O          60.7190   90.1394    9.9477 O.2     1  UNL1       -0.2749
      7 C          61.0695   87.2662   10.7361 C.3     1  UNL1        0.1148
      8 C          61.2447   85.8296   11.1304 C.3     1  UNL1        0.1123
      9 C          63.1134   79.6753   13.5557 C.3     1  UNL1        0.0310
     10 C          62.9382   81.1119   13.1614 C.ar    1  UNL1       -0.0220
     11 C          62.8085   81.4818   11.7136 C.ar    1  UNL1       -0.0030
     12 C          62.6333   82.9184   11.3194 C.ar    1  UNL1        0.0139
     13 C          62.5878   83.9851   12.3729 C.ar    1  UNL1        0.0451
     14 C          62.7175   83.6152   13.8208 C.ar    1  UNL1        0.0048
     15 C          62.8927   82.1785   14.2150 C.ar    1  UNL1       -0.0060
     16 C          62.6720   84.6819   14.8745 C.3     1  UNL1        0.0747
     17 N          61.3713   85.0262   15.5374 N.3     1  UNL1       -0.3188
     18 H          60.6286   84.4421   15.1530 H       1  UNL1        0.1191
     19 H          61.1532   86.0083   15.3686 H       1  UNL1        0.1191
     20 C          63.9272   85.4041   15.2652 C.3     1  UNL1        0.0184
     21 C          65.2622   84.8787   14.8270 C.3     1  UNL1        0.0017
     22 C          63.8476   86.6518   16.0940 C.3     1  UNL1        0.0017
     23 C          62.8796   90.7603   11.2500 C.3     1  UNL1        0.0811
     24 C          63.6130   91.5921   10.2399 C.3     1  UNL1        0.0099
     25 C          63.1389   90.9574   12.7143 C.3     1  UNL1        0.0354
     26 C          64.5082   91.3456   13.1879 C.ar    1  UNL1       -0.0217
     27 C          65.2672   92.4292   12.4808 C.ar    1  UNL1       -0.0034
     28 C          66.6364   92.8174   12.9544 C.ar    1  UNL1        0.0111
     29 C          67.2469   92.1220   14.1350 C.ar    1  UNL1        0.0577
     30 CL         68.6162   92.5102   14.6085 Cl      1  UNL1       -0.0822
     31 C          66.4880   91.0384   14.8420 C.ar    1  UNL1        0.0111
     32 C          65.1186   90.6502   14.3684 C.ar    1  UNL1       -0.0034
@<TRIPOS>BOND
     1     9    10    1
     2    10    11   ar
     3    11    12   ar
     4    12    13   ar
     5    13     1    1
     6     1     2    1
     7     2     3    1
     8     3     4    1
     9     4     5   am
    10     5     6    2
    11     5    23    1
    12    23    24    1
    13    23    25    1
    14    25    26    1
    15    26    27   ar
    16    27    28   ar
    17    28    29   ar
    18    29    30    1
    19    29    31   ar
    20    31    32   ar
    21     4     7    1
    22     7     8    1
    23    13    14   ar
    24    14    16    1
    25    16    17    1
    26    16    20    1
    27    20    21    1
    28    20    22    1
    29    14    15   ar
    30    15    10   ar
    31     8     1    1
    32    32    26   ar
    33    17    18    1
    34    17    19    1
@<TRIPOS>MOLECULE
*****
 32 34 0 0 0
SMALL
GASTEIGER

@<TRIPOS>ATOM
      1 N          62.8230   85.5533   12.1898 N.pl3   1  UNL1       -0.3043
      2 C          63.5707   86.4046   13.1727 C.3     1  UNL1        0.1123
      3 C          63.6150   87.8933   12.9942 C.3     1  UNL1        0.1148
      4 N          62.9117   88.5307   11.8327 N.am    1  UNL1       -0.2760
      5 C          62.9560   90.0193   11.6542 C.2     1  UNL1        0.2256
      6 O          62.2527   90.6567   10.4927 O.2     1  UNL1       -0.2749
      7 C          62.1640   87.6793   10.8498 C.3     1  UNL1        0.1148
      8 C          62.1197   86.1907   11.0283 C.3     1  UNL1        0.1123
      9 C          62.6457   79.5986   12.9040 C.3     1  UNL1        0.0310
     10 C          62.6900   81.0873   12.7254 C.ar    1  UNL1       -0.0220
     11 C          62.8205   81.6743   11.3513 C.ar    1  UNL1       -0.0030
     12 C          62.8648   83.1630   11.1727 C.ar    1  UNL1        0.0139
     13 C          62.7787   84.0646   12.3683 C.ar    1  UNL1        0.0451
     14 C          62.6482   83.4776   13.7425 C.ar    1  UNL1        0.0048
     15 C          62.6039   81.9889   13.9210 C.ar    1  UNL1       -0.0060
     16 C          62.5621   84.3793   14.9382 C.3     1  UNL1        0.0747
     17 N          61.2228   84.8177   15.4520 N.3     1  UNL1       -0.3188
     18 H          60.4872   84.4118   14.8735 H       1  UNL1        0.1191
     19 H          61.1612   85.8352   15.4159 H       1  UNL1        0.1191
     20 C          63.8153   84.8425   15.6200 C.3     1  UNL1        0.0184
     21 C          63.7315   85.7873   16.7822 C.3     1  UNL1        0.0017
     22 C          65.1523   84.3611   15.1398 C.3     1  UNL1        0.0017
     23 C          63.7037   90.8707   12.6371 C.3     1  UNL1        0.0811
     24 C          63.3337   90.8390   14.0904 C.3     1  UNL1        0.0099
     25 C          64.8213   91.7537   12.1667 C.3     1  UNL1        0.0354
     26 C          65.8415   92.2572   13.1443 C.ar    1  UNL1       -0.0217
     27 C          66.1292   93.7264   13.2381 C.ar    1  UNL1       -0.0034
     28 C          67.1494   94.2300   14.2157 C.ar    1  UNL1        0.0111
     29 C          67.8819   93.2644   15.0994 C.ar    1  UNL1        0.0577
     30 CL         68.9021   93.7679   16.0770 Cl      1  UNL1       -0.0822
     31 C          67.5943   91.7952   15.0056 C.ar    1  UNL1        0.0111
     32 C          66.5740   91.2916   14.0280 C.ar    1  UNL1       -0.0034
@<TRIPOS>BOND
     1     9    10    1
     2    10    11   ar
     3    11    12   ar
     4    12    13   ar
     5    13     1    1
     6     1     2    1
     7     2     3    1
     8     3     4    1
     9     4     5   am
    10     5     6    2
    11     5    23    1
    12    23    24    1
    13    23    25    1
    14    25    26    1
    15    26    27   ar
    16    27    28   ar
    17    28    29   ar
    18    29    30    1
    19    29    31   ar
    20    31    32   ar
    21     4     7    1
    22     7     8    1
    23    13    14   ar
    24    14    16    1
    25    16    17    1
    26    16    20    1
    27    20    21    1
    28    20    22    1
    29    14    15   ar
    30    15    10   ar
    31     8     1    1
    32    32    26   ar
    33    17    18    1
    34    17    19    1
@<TRIPOS>MOLECULE
*****
 32 34 0 0 0
SMALL
GASTEIGER

@<TRIPOS>ATOM
      1 N          63.3527   86.3797   13.1331 N.pl3   1  UNL1       -0.3043
      2 C          64.2394   87.0025   14.1703 C.3     1  UNL1        0.1123
      3 C          64.5128   88.4770   14.1359 C.3     1  UNL1        0.1148
      4 N          63.8994   89.3286   13.0643 N.am    1  UNL1       -0.2760
      5 C          64.1727   90.8031   13.0299 C.2     1  UNL1        0.2256
      6 O          63.5594   91.6548   11.9583 O.2     1  UNL1       -0.2749
      7 C          63.0127   88.7059   12.0271 C.3     1  UNL1        0.1148
      8 C          62.7394   87.2314   12.0615 C.3     1  UNL1        0.1123
      9 C          62.2594   80.4817   13.2706 C.3     1  UNL1        0.0310
     10 C          62.5327   81.9562   13.2362 C.ar    1  UNL1       -0.0220
     11 C          62.4938   82.6960   11.9320 C.ar    1  UNL1       -0.0030
     12 C          62.7671   84.1705   11.8976 C.ar    1  UNL1        0.0139
     13 C          63.0794   84.9052   13.1675 C.ar    1  UNL1        0.0451
     14 C          63.1183   84.1654   14.4717 C.ar    1  UNL1        0.0048
     15 C          62.8450   82.6909   14.5061 C.ar    1  UNL1       -0.0060
     16 C          63.4306   84.9001   15.7417 C.3     1  UNL1        0.0747
     17 N          64.8423   84.9613   16.2450 N.3     1  UNL1       -0.3188
     18 H          65.4536   84.4539   15.6053 H       1  UNL1        0.1191
     19 H          64.8918   84.5367   17.1712 H       1  UNL1        0.1191
     20 C          62.3312   85.5736   16.5083 C.3     1  UNL1        0.0184
     21 C          60.9201   85.5163   16.0025 C.3     1  UNL1        0.0017
     22 C          62.6428   86.3045   17.7806 C.3     1  UNL1        0.0017
     23 C          65.0594   91.4259   14.0671 C.3     1  UNL1        0.0811
     24 C          64.5673   91.5887   15.4747 C.3     1  UNL1        0.0099
     25 C          66.4383   91.8860   13.6968 C.3     1  UNL1        0.0354
     26 C          66.6572   92.6530   12.4265 C.ar    1  UNL1       -0.0217
     27 C          67.3675   92.0077   11.2736 C.ar    1  UNL1       -0.0034
     28 C          67.5863   92.7748   10.0033 C.ar    1  UNL1        0.0111
     29 C          67.0948   94.1871    9.8858 C.ar    1  UNL1        0.0577
     30 CL         67.3136   94.9541    8.6155 Cl      1  UNL1       -0.0822
     31 C          66.3845   94.8323   11.0386 C.ar    1  UNL1        0.0111
     32 C          66.1656   94.0653   12.3090 C.ar    1  UNL1       -0.0034
@<TRIPOS>BOND
     1     9    10    1
     2    10    11   ar
     3    11    12   ar
     4    12    13   ar
     5    13     1    1
     6     1     2    1
     7     2     3    1
     8     3     4    1
     9     4     5   am
    10     5     6    2
    11     5    23    1
    12    23    24    1
    13    23    25    1
    14    25    26    1
    15    26    27   ar
    16    27    28   ar
    17    28    29   ar
    18    29    30    1
    19    29    31   ar
    20    31    32   ar
    21     4     7    1
    22     7     8    1
    23    13    14   ar
    24    14    16    1
    25    16    17    1
    26    16    20    1
    27    20    21    1
    28    20    22    1
    29    14    15   ar
    30    15    10   ar
    31     8     1    1
    32    32    26   ar
    33    17    18    1
    34    17    19    1
@<TRIPOS>MOLECULE
*****
 32 34 0 0 0
SMALL
GASTEIGER

@<TRIPOS>ATOM
      1 N          63.5224   86.1302   14.0204 N.pl3   1  UNL1       -0.3043
      2 C          63.8295   87.0288   12.8593 C.3     1  UNL1        0.1123
      3 C          64.0917   88.4878   13.0889 C.3     1  UNL1        0.1148
      4 N          64.0467   89.0481   14.4795 N.am    1  UNL1       -0.2760
      5 C          64.3088   90.5071   14.7091 C.2     1  UNL1        0.2256
      6 O          64.2639   91.0675   16.0997 O.2     1  UNL1       -0.2749
      7 C          63.7396   88.1495   15.6406 C.3     1  UNL1        0.1148
      8 C          63.4775   86.6906   15.4110 C.3     1  UNL1        0.1123
      9 C          62.4740   80.2943   13.1021 C.3     1  UNL1        0.0310
     10 C          62.7361   81.7533   13.3317 C.ar    1  UNL1       -0.0220
     11 C          63.4181   82.2040   14.5893 C.ar    1  UNL1       -0.0030
     12 C          63.6803   83.6629   14.8189 C.ar    1  UNL1        0.0139
     13 C          63.2603   84.6712   13.7908 C.ar    1  UNL1        0.0451
     14 C          62.5783   84.2206   12.5332 C.ar    1  UNL1        0.0048
     15 C          62.3161   82.7616   12.3036 C.ar    1  UNL1       -0.0060
     16 C          62.1583   85.2289   11.5051 C.3     1  UNL1        0.0747
     17 N          61.1467   86.2798   11.8547 N.3     1  UNL1       -0.3188
     18 H          60.8539   86.1606   12.8245 H       1  UNL1        0.1191
     19 H          60.3367   86.1895   11.2414 H       1  UNL1        0.1191
     20 C          62.7499   85.1863   10.1274 C.3     1  UNL1        0.0184
     21 C          63.6942   84.0833    9.7504 C.3     1  UNL1        0.0017
     22 C          62.3973   86.2465    9.1266 C.3     1  UNL1        0.0017
     23 C          64.6159   91.4057   13.5480 C.3     1  UNL1        0.0811
     24 C          63.6597   91.4957   12.3958 C.3     1  UNL1        0.0099
     25 C          65.8793   92.2144   13.5391 C.3     1  UNL1        0.0354
     26 C          66.3137   92.9131   12.2849 C.ar    1  UNL1       -0.0217
     27 C          67.0116   92.1452   11.2017 C.ar    1  UNL1       -0.0034
     28 C          67.4460   92.8439    9.9476 C.ar    1  UNL1        0.0111
     29 C          67.1824   94.3106    9.7764 C.ar    1  UNL1        0.0577
     30 CL         67.6168   95.0094    8.5222 Cl      1  UNL1       -0.0822
     31 C          66.4845   95.0786   10.8595 C.ar    1  UNL1        0.0111
     32 C          66.0501   94.3799   12.1138 C.ar    1  UNL1       -0.0034
@<TRIPOS>BOND
     1     9    10    1
     2    10    11   ar
     3    11    12   ar
     4    12    13   ar
     5    13     1    1
     6     1     2    1
     7     2     3    1
     8     3     4    1
     9     4     5   am
    10     5     6    2
    11     5    23    1
    12    23    24    1
    13    23    25    1
    14    25    26    1
    15    26    27   ar
    16    27    28   ar
    17    28    29   ar
    18    29    30    1
    19    29    31   ar
    20    31    32   ar
    21     4     7    1
    22     7     8    1
    23    13    14   ar
    24    14    16    1
    25    16    17    1
    26    16    20    1
    27    20    21    1
    28    20    22    1
    29    14    15   ar
    30    15    10   ar
    31     8     1    1
    32    32    26   ar
    33    17    18    1
    34    17    19    1
@<TRIPOS>MOLECULE
*****
 32 34 0 0 0
SMALL
GASTEIGER

@<TRIPOS>ATOM
      1 N          63.4133   85.4579   14.3278 N.pl3   1  UNL1       -0.3043
      2 C          64.0580   86.4153   13.3699 C.3     1  UNL1        0.1123
      3 C          64.2648   87.8473   13.7659 C.3     1  UNL1        0.1148
      4 N          63.8269   88.3217   15.1198 N.am    1  UNL1       -0.2760
      5 C          64.0338   89.7536   15.5159 C.2     1  UNL1        0.2256
      6 O          63.5959   90.2280   16.8698 O.2     1  UNL1       -0.2749
      7 C          63.1823   87.3642   16.0777 C.3     1  UNL1        0.1148
      8 C          62.9755   85.9323   15.6817 C.3     1  UNL1        0.1123
      9 C          62.5861   79.7302   12.7436 C.3     1  UNL1        0.0310
     10 C          62.7929   81.1621   13.1397 C.ar    1  UNL1       -0.0220
     11 C          63.3144   81.4945   14.5062 C.ar    1  UNL1       -0.0030
     12 C          63.5212   82.9264   14.9022 C.ar    1  UNL1        0.0139
     13 C          63.2065   84.0259   13.9317 C.ar    1  UNL1        0.0451
     14 C          62.6850   83.6936   12.5652 C.ar    1  UNL1        0.0048
     15 C          62.4782   82.2616   12.1691 C.ar    1  UNL1       -0.0060
     16 C          62.3703   84.7931   11.5946 C.3     1  UNL1        0.0747
     17 N          61.4715   85.9216   12.0053 N.3     1  UNL1       -0.3188
     18 H          61.1681   85.7811   12.9690 H       1  UNL1        0.1191
     19 H          60.6565   85.9474   11.3926 H       1  UNL1        0.1191
     20 C          62.9543   84.7642   10.2133 C.3     1  UNL1        0.0184
     21 C          63.9671   83.7193    9.8489 C.3     1  UNL1        0.0017
     22 C          62.5256   85.7800    9.1963 C.3     1  UNL1        0.0017
     23 C          64.6784   90.7111   14.5580 C.3     1  UNL1        0.0811
     24 C          66.1730   90.8264   14.5046 C.3     1  UNL1        0.0099
     25 C          63.8284   91.5534   13.6534 C.3     1  UNL1        0.0354
     26 C          63.0901   90.9186   12.5124 C.ar    1  UNL1       -0.0217
     27 C          61.8504   90.1159   12.7752 C.ar    1  UNL1       -0.0034
     28 C          61.1120   89.4812   11.6342 C.ar    1  UNL1        0.0111
     29 C          61.6133   89.6491   10.2304 C.ar    1  UNL1        0.0577
     30 CL         60.8749   89.0143    9.0894 Cl      1  UNL1       -0.0822
     31 C          62.8529   90.4517    9.9676 C.ar    1  UNL1        0.0111
     32 C          63.5913   91.0865   11.1087 C.ar    1  UNL1       -0.0034
@<TRIPOS>BOND
     1     9    10    1
     2    10    11   ar
     3    11    12   ar
     4    12    13   ar
     5    13     1    1
     6     1     2    1
     7     2     3    1
     8     3     4    1
     9     4     5   am
    10     5     6    2
    11     5    23    1
    12    23    24    1
    13    23    25    1
    14    25    26    1
    15    26    27   ar
    16    27    28   ar
    17    28    29   ar
    18    29    30    1
    19    29    31   ar
    20    31    32   ar
    21     4     7    1
    22     7     8    1
    23    13    14   ar
    24    14    16    1
    25    16    17    1
    26    16    20    1
    27    20    21    1
    28    20    22    1
    29    14    15   ar
    30    15    10   ar
    31     8     1    1
    32    32    26   ar
    33    17    18    1
    34    17    19    1
