@<TRIPOS>MOLECULE
*****
 28 32 0 0 0
SMALL
GASTEIGER

@<TRIPOS>ATOM
      1 O          63.5059   87.4080   16.2277 O.2     1  UNL1       -0.2526
      2 C          63.6627   87.0658   14.7757 C.2     1  UNL1        0.3039
      3 N          64.0250   88.1350   13.7881 N.am    1  UNL1       -0.2901
      4 N          63.4571   85.6543   14.3114 N.am    1  UNL1       -0.2640
      5 C          63.0948   84.5851   15.2990 C.3     1  UNL1        0.0985
      6 C          62.8892   83.1738   14.8346 C.3     1  UNL1        0.0616
      7 C          63.0460   82.8316   13.3826 C.3     1  UNL1        0.1368
      8 C          62.6836   81.7623   14.3702 C.3     1  UNL1        0.0465
      9 C          62.4781   80.3509   13.9059 C.3     1  UNL1        0.0525
     10 C          62.6349   80.0087   12.4539 C.ar    1  UNL1        0.0929
     11 N          62.4293   78.5972   11.9895 N.ar    1  UNL1       -0.2451
     12 C          62.5861   78.2551   10.5375 C.ar    1  UNL1        0.0987
     13 C          62.9484   79.3244    9.5498 C.ar    1  UNL1        0.0238
     14 C          63.1540   80.7358   10.0142 C.ar    1  UNL1        0.0397
     15 C          62.9972   81.0779   11.4662 C.ar    1  UNL1        0.1516
     16 O          63.2028   82.4894   11.9306 O.3     1  UNL1       -0.4813
     17 C          63.4083   83.9008   12.3950 C.3     1  UNL1        0.0616
     18 C          63.6139   85.3122   12.8593 C.3     1  UNL1        0.0985
     19 H          64.1279   87.9104   12.8351 H       1  UNL1        0.1509
     20 C          64.2306   89.5465   14.2524 C.3     1  UNL1        0.0774
     21 C          64.1818   90.5754   15.3428 C.3     1  UNL1        0.0259
     22 C          64.6355   90.9622   13.9664 C.3     1  UNL1        0.0420
     23 C          65.1311   92.0029   13.0065 C.ar    1  UNL1       -0.0208
     24 C          66.0104   93.1156   13.4950 C.ar    1  UNL1       -0.0042
     25 C          66.5061   94.1563   12.5351 C.ar    1  UNL1       -0.0003
     26 C          66.1224   94.0842   11.0868 C.ar    1  UNL1       -0.0000
     27 C          65.2431   92.9714   10.5983 C.ar    1  UNL1       -0.0003
     28 C          64.7475   91.9308   11.5583 C.ar    1  UNL1       -0.0042
@<TRIPOS>BOND
     1     1     2    2
     2     2     3   am
     3    20     3    1
     4    20    21    1
     5    21    22    1
     6    22    23    1
     7    23    24   ar
     8    24    25   ar
     9    25    26   ar
    10    26    27   ar
    11    27    28   ar
    12     2     4   am
    13     4     5    1
    14     5     6    1
    15     6     7    1
    16     7     8    1
    17     8     9    1
    18     9    10    1
    19    10    11   ar
    20    11    12   ar
    21    12    13   ar
    22    13    14   ar
    23    14    15   ar
    24    15    16    1
    25     7    17    1
    26    17    18    1
    27    22    20    1
    28    28    23   ar
    29    18     4    1
    30    16     7    1
    31    15    10   ar
    32     3    19    1
@<TRIPOS>MOLECULE
*****
 28 32 0 0 0
SMALL
GASTEIGER

@<TRIPOS>ATOM
      1 O          63.2763   87.5312   16.8214 O.2     1  UNL1       -0.2526
      2 C          63.5334   87.2733   15.3662 C.2     1  UNL1        0.3039
      3 N          63.9700   88.3953   14.4715 N.am    1  UNL1       -0.2901
      4 N          63.3537   85.8935   14.8058 N.am    1  UNL1       -0.2640
      5 C          62.9171   84.7716   15.7006 C.3     1  UNL1        0.0985
      6 C          62.7375   83.3919   15.1402 C.3     1  UNL1        0.0616
      7 C          62.9946   83.1341   13.6850 C.3     1  UNL1        0.1368
      8 C          62.5579   82.0121   14.5798 C.3     1  UNL1        0.0465
      9 C          62.3783   80.6324   14.0194 C.3     1  UNL1        0.0525
     10 C          62.6353   80.3746   12.5643 C.ar    1  UNL1        0.0929
     11 N          62.4557   78.9948   12.0039 N.ar    1  UNL1       -0.2451
     12 C          62.7128   78.7370   10.5487 C.ar    1  UNL1        0.0987
     13 C          63.1494   79.8590    9.6540 C.ar    1  UNL1        0.0238
     14 C          63.3290   81.2387   10.2144 C.ar    1  UNL1        0.0397
     15 C          63.0720   81.4965   11.6695 C.ar    1  UNL1        0.1516
     16 O          63.2516   82.8763   12.2299 O.3     1  UNL1       -0.4813
     17 C          63.4312   84.2560   12.7903 C.3     1  UNL1        0.0616
     18 C          63.6108   85.6357   13.3507 C.3     1  UNL1        0.0985
     19 H          64.1387   88.2260   13.5164 H       1  UNL1        0.1509
     20 C          64.1496   89.7751   15.0319 C.3     1  UNL1        0.0774
     21 C          63.5936   90.9663   15.7542 C.3     1  UNL1        0.0259
     22 C          65.0167   90.9736   15.2801 C.3     1  UNL1        0.0420
     23 C          66.3389   91.6698   15.1498 C.ar    1  UNL1       -0.0208
     24 C          66.7518   92.6921   16.1669 C.ar    1  UNL1       -0.0042
     25 C          68.0740   93.3882   16.0365 C.ar    1  UNL1       -0.0003
     26 C          68.9834   93.0622   14.8890 C.ar    1  UNL1       -0.0000
     27 C          68.5705   92.0399   13.8719 C.ar    1  UNL1       -0.0003
     28 C          67.2482   91.3437   14.0023 C.ar    1  UNL1       -0.0042
@<TRIPOS>BOND
     1     1     2    2
     2     2     3   am
     3    20     3    1
     4    20    21    1
     5    21    22    1
     6    22    23    1
     7    23    24   ar
     8    24    25   ar
     9    25    26   ar
    10    26    27   ar
    11    27    28   ar
    12     2     4   am
    13     4     5    1
    14     5     6    1
    15     6     7    1
    16     7     8    1
    17     8     9    1
    18     9    10    1
    19    10    11   ar
    20    11    12   ar
    21    12    13   ar
    22    13    14   ar
    23    14    15   ar
    24    15    16    1
    25     7    17    1
    26    17    18    1
    27    22    20    1
    28    28    23   ar
    29    18     4    1
    30    16     7    1
    31    15    10   ar
    32     3    19    1
@<TRIPOS>MOLECULE
*****
 28 32 0 0 0
SMALL
GASTEIGER

@<TRIPOS>ATOM
      1 O          60.6959   90.4634    9.0084 O.2     1  UNL1       -0.2526
      2 C          60.5478   89.0112    8.6631 C.2     1  UNL1        0.3039
      3 N          59.8167   88.6073    7.4172 N.am    1  UNL1       -0.2901
      4 N          61.1309   87.9629    9.5638 N.am    1  UNL1       -0.2640
      5 C          61.8620   88.3669   10.8097 C.3     1  UNL1        0.0985
      6 C          62.4450   87.3186   11.7104 C.3     1  UNL1        0.0616
      7 C          62.2969   85.8664   11.3651 C.3     1  UNL1        0.1368
      8 C          63.0281   86.2703   12.6111 C.3     1  UNL1        0.0465
      9 C          63.6111   85.2220   13.5117 C.3     1  UNL1        0.0525
     10 C          63.4630   83.7698   13.1664 C.ar    1  UNL1        0.0929
     11 N          64.0461   82.7215   14.0671 N.ar    1  UNL1       -0.2451
     12 C          63.8980   81.2693   13.7218 C.ar    1  UNL1        0.0987
     13 C          63.1669   80.8654   12.4759 C.ar    1  UNL1        0.0238
     14 C          62.5838   81.9137   11.5752 C.ar    1  UNL1        0.0397
     15 C          62.7319   83.3659   11.9205 C.ar    1  UNL1        0.1516
     16 O          62.1489   84.4142   11.0198 O.3     1  UNL1       -0.4813
     17 C          61.5658   85.4625   10.1192 C.3     1  UNL1        0.0616
     18 C          60.9828   86.5107    9.2186 C.3     1  UNL1        0.0985
     19 H          59.7196   87.6542    7.1906 H       1  UNL1        0.1509
     20 C          59.2337   89.6556    6.5165 C.3     1  UNL1        0.0774
     21 C          58.0553   90.4576    6.0493 C.3     1  UNL1        0.0259
     22 C          59.4021   90.6693    5.4238 C.3     1  UNL1        0.0420
     23 C          60.2770   91.3767    4.4318 C.ar    1  UNL1       -0.0208
     24 C          59.7243   92.5090    3.6179 C.ar    1  UNL1       -0.0042
     25 C          60.5992   93.2165    2.6259 C.ar    1  UNL1       -0.0003
     26 C          62.0267   92.7917    2.4478 C.ar    1  UNL1       -0.0000
     27 C          62.5794   91.6594    3.2617 C.ar    1  UNL1       -0.0003
     28 C          61.7045   90.9519    4.2537 C.ar    1  UNL1       -0.0042
@<TRIPOS>BOND
     1     1     2    2
     2     2     3   am
     3    20     3    1
     4    20    21    1
     5    21    22    1
     6    22    23    1
     7    23    24   ar
     8    24    25   ar
     9    25    26   ar
    10    26    27   ar
    11    27    28   ar
    12     2     4   am
    13     4     5    1
    14     5     6    1
    15     6     7    1
    16     7     8    1
    17     8     9    1
    18     9    10    1
    19    10    11   ar
    20    11    12   ar
    21    12    13   ar
    22    13    14   ar
    23    14    15   ar
    24    15    16    1
    25     7    17    1
    26    17    18    1
    27    22    20    1
    28    28    23   ar
    29    18     4    1
    30    16     7    1
    31    15    10   ar
    32     3    19    1
@<TRIPOS>MOLECULE
*****
 28 32 0 0 0
SMALL
GASTEIGER

@<TRIPOS>ATOM
      1 O          59.2170   87.5570    6.5332 O.2     1  UNL1       -0.2526
      2 C          59.9446   88.3931    7.5438 C.2     1  UNL1        0.3039
      3 N          59.9806   89.8854    7.3965 N.am    1  UNL1       -0.2901
      4 N          60.6364   87.7369    8.7019 N.am    1  UNL1       -0.2640
      5 C          60.6004   86.2446    8.8492 C.3     1  UNL1        0.0985
      6 C          61.2921   85.5884   10.0072 C.3     1  UNL1        0.0616
      7 C          62.0197   86.4246   11.0178 C.3     1  UNL1        0.1368
      8 C          61.9838   84.9322   11.1652 C.3     1  UNL1        0.0465
      9 C          62.6755   84.2761   12.3232 C.3     1  UNL1        0.0525
     10 C          63.4032   85.1122   13.3339 C.ar    1  UNL1        0.0929
     11 N          64.0949   84.4560   14.4919 N.ar    1  UNL1       -0.2451
     12 C          64.8226   85.2921   15.5025 C.ar    1  UNL1        0.0987
     13 C          64.8585   86.7845   15.3551 C.ar    1  UNL1        0.0238
     14 C          64.1668   87.4406   14.1971 C.ar    1  UNL1        0.0397
     15 C          63.4391   86.6045   13.1865 C.ar    1  UNL1        0.1516
     16 O          62.7474   87.2607   12.0285 O.3     1  UNL1       -0.4813
     17 C          62.0557   87.9169   10.8705 C.3     1  UNL1        0.0616
     18 C          61.3640   88.5730    9.7125 C.3     1  UNL1        0.0985
     19 H          60.4582   90.4341    8.0598 H       1  UNL1        0.1509
     20 C          59.2889   90.5416    6.2384 C.3     1  UNL1        0.0774
     21 C          58.0246   90.9219    5.5265 C.3     1  UNL1        0.0259
     22 C          59.3551   91.2978    4.9447 C.3     1  UNL1        0.0420
     23 C          60.1615   91.9515    3.8619 C.ar    1  UNL1       -0.0208
     24 C          59.4975   92.8805    2.8893 C.ar    1  UNL1       -0.0042
     25 C          60.3039   93.5341    1.8065 C.ar    1  UNL1       -0.0003
     26 C          61.7743   93.2588    1.6963 C.ar    1  UNL1       -0.0000
     27 C          62.4383   92.3297    2.6690 C.ar    1  UNL1       -0.0003
     28 C          61.6318   91.6761    3.7518 C.ar    1  UNL1       -0.0042
@<TRIPOS>BOND
     1     1     2    2
     2     2     3   am
     3    20     3    1
     4    20    21    1
     5    21    22    1
     6    22    23    1
     7    23    24   ar
     8    24    25   ar
     9    25    26   ar
    10    26    27   ar
    11    27    28   ar
    12     2     4   am
    13     4     5    1
    14     5     6    1
    15     6     7    1
    16     7     8    1
    17     8     9    1
    18     9    10    1
    19    10    11   ar
    20    11    12   ar
    21    12    13   ar
    22    13    14   ar
    23    14    15   ar
    24    15    16    1
    25     7    17    1
    26    17    18    1
    27    22    20    1
    28    28    23   ar
    29    18     4    1
    30    16     7    1
    31    15    10   ar
    32     3    19    1
@<TRIPOS>MOLECULE
*****
 28 32 0 0 0
SMALL
GASTEIGER

@<TRIPOS>ATOM
      1 O          64.8856   91.3084   15.8780 O.2     1  UNL1       -0.2526
      2 C          64.8477   90.5029   14.6132 C.2     1  UNL1        0.3039
      3 N          65.2886   91.1184   13.3184 N.am    1  UNL1       -0.2901
      4 N          64.3688   89.0816   14.6433 N.am    1  UNL1       -0.2640
      5 C          63.9279   88.4660   15.9381 C.3     1  UNL1        0.0985
      6 C          63.4490   87.0449   15.9682 C.3     1  UNL1        0.0616
      7 C          63.4111   86.2393   14.7034 C.3     1  UNL1        0.1368
      8 C          62.9701   85.6236   15.9983 C.3     1  UNL1        0.0465
      9 C          62.4913   84.2025   16.0283 C.3     1  UNL1        0.0525
     10 C          62.4534   83.3969   14.7636 C.ar    1  UNL1        0.0929
     11 N          61.9745   81.9756   14.7937 N.ar    1  UNL1       -0.2451
     12 C          61.9366   81.1701   13.5289 C.ar    1  UNL1        0.0987
     13 C          62.3775   81.7857   12.2340 C.ar    1  UNL1        0.0238
     14 C          62.8564   83.2069   12.2040 C.ar    1  UNL1        0.0397
     15 C          62.8943   84.0125   13.4687 C.ar    1  UNL1        0.1516
     16 O          63.3732   85.4337   13.4386 O.3     1  UNL1       -0.4813
     17 C          63.8520   86.8549   13.4086 C.3     1  UNL1        0.0616
     18 C          64.3309   88.2760   13.3785 C.3     1  UNL1        0.0985
     19 H          65.2637   90.5897   12.4883 H       1  UNL1        0.1509
     20 C          65.7675   92.5397   13.2883 C.3     1  UNL1        0.0774
     21 C          66.1998   93.7804   14.0119 C.3     1  UNL1        0.0259
     22 C          66.1646   93.7605   12.5125 C.3     1  UNL1        0.0420
     23 C          66.3735   94.4539   11.1989 C.ar    1  UNL1       -0.0208
     24 C          66.9915   93.7136   10.0500 C.ar    1  UNL1       -0.0042
     25 C          67.2005   94.4070    8.7364 C.ar    1  UNL1       -0.0003
     26 C          66.7913   95.8407    8.5717 C.ar    1  UNL1       -0.0000
     27 C          66.1733   96.5810    9.7206 C.ar    1  UNL1       -0.0003
     28 C          65.9644   95.8876   11.0343 C.ar    1  UNL1       -0.0042
@<TRIPOS>BOND
     1     1     2    2
     2     2     3   am
     3    20     3    1
     4    20    21    1
     5    21    22    1
     6    22    23    1
     7    23    24   ar
     8    24    25   ar
     9    25    26   ar
    10    26    27   ar
    11    27    28   ar
    12     2     4   am
    13     4     5    1
    14     5     6    1
    15     6     7    1
    16     7     8    1
    17     8     9    1
    18     9    10    1
    19    10    11   ar
    20    11    12   ar
    21    12    13   ar
    22    13    14   ar
    23    14    15   ar
    24    15    16    1
    25     7    17    1
    26    17    18    1
    27    22    20    1
    28    28    23   ar
    29    18     4    1
    30    16     7    1
    31    15    10   ar
    32     3    19    1
@<TRIPOS>MOLECULE
*****
 28 32 0 0 0
SMALL
GASTEIGER

@<TRIPOS>ATOM
      1 O          58.0108   90.4657    5.8641 O.2     1  UNL1       -0.2526
      2 C          59.4784   90.4689    5.5539 C.2     1  UNL1        0.3039
      3 N          60.4048   89.5558    6.3009 N.am    1  UNL1       -0.2901
      4 N          60.0196   91.3852    4.4967 N.am    1  UNL1       -0.2640
      5 C          59.0932   92.2983    3.7498 C.3     1  UNL1        0.0985
      6 C          59.6344   93.2146    2.6927 C.3     1  UNL1        0.0616
      7 C          61.1020   93.2178    2.3825 C.3     1  UNL1        0.1368
      8 C          60.1756   94.1309    1.6355 C.3     1  UNL1        0.0465
      9 C          60.7168   95.0472    0.5784 C.3     1  UNL1        0.0525
     10 C          62.1844   95.0504    0.2683 C.ar    1  UNL1        0.0929
     11 N          62.7256   95.9667   -0.7889 N.ar    1  UNL1       -0.2451
     12 C          64.1932   95.9698   -1.0990 C.ar    1  UNL1        0.0987
     13 C          65.1196   95.0567   -0.3520 C.ar    1  UNL1        0.0238
     14 C          64.5784   94.1404    0.7051 C.ar    1  UNL1        0.0397
     15 C          63.1108   94.1372    1.0152 C.ar    1  UNL1        0.1516
     16 O          62.5696   93.2209    2.0724 O.3     1  UNL1       -0.4813
     17 C          62.0284   92.3047    3.1295 C.3     1  UNL1        0.0616
     18 C          61.4872   91.3884    4.1866 C.3     1  UNL1        0.0985
     19 H          61.3680   89.5579    6.0973 H       1  UNL1        0.1509
     20 C          59.8636   88.6395    7.3581 C.3     1  UNL1        0.0774
     21 C          58.7025   88.1014    8.1404 C.3     1  UNL1        0.0259
     22 C          60.0874   87.5905    8.4067 C.3     1  UNL1        0.0420
     23 C          61.0162   86.6900    9.1658 C.ar    1  UNL1       -0.0208
     24 C          60.9294   86.6118   10.6612 C.ar    1  UNL1       -0.0042
     25 C          61.8582   85.7112   11.4204 C.ar    1  UNL1       -0.0003
     26 C          62.8739   84.8889   10.6841 C.ar    1  UNL1       -0.0000
     27 C          62.9608   84.9672    9.1886 C.ar    1  UNL1       -0.0003
     28 C          62.0319   85.8677    8.4295 C.ar    1  UNL1       -0.0042
@<TRIPOS>BOND
     1     1     2    2
     2     2     3   am
     3    20     3    1
     4    20    21    1
     5    21    22    1
     6    22    23    1
     7    23    24   ar
     8    24    25   ar
     9    25    26   ar
    10    26    27   ar
    11    27    28   ar
    12     2     4   am
    13     4     5    1
    14     5     6    1
    15     6     7    1
    16     7     8    1
    17     8     9    1
    18     9    10    1
    19    10    11   ar
    20    11    12   ar
    21    12    13   ar
    22    13    14   ar
    23    14    15   ar
    24    15    16    1
    25     7    17    1
    26    17    18    1
    27    22    20    1
    28    28    23   ar
    29    18     4    1
    30    16     7    1
    31    15    10   ar
    32     3    19    1
@<TRIPOS>MOLECULE
*****
 28 32 0 0 0
SMALL
GASTEIGER

@<TRIPOS>ATOM
      1 O          58.0577   91.2888    4.7808 O.2     1  UNL1       -0.2526
      2 C          59.5424   91.3684    4.5828 C.2     1  UNL1        0.3039
      3 N          60.4614   90.5956    5.4818 N.am    1  UNL1       -0.2901
      4 N          60.1082   92.2207    3.4857 N.am    1  UNL1       -0.2640
      5 C          59.1892   92.9935    2.5867 C.3     1  UNL1        0.0985
      6 C          59.7549   93.8458    1.4897 C.3     1  UNL1        0.0616
      7 C          61.2396   93.9253    1.2917 C.3     1  UNL1        0.1368
      8 C          60.3206   94.6981    0.3926 C.3     1  UNL1        0.0465
      9 C          60.8864   95.5504   -0.7044 C.3     1  UNL1        0.0525
     10 C          62.3711   95.6300   -0.9024 C.ar    1  UNL1        0.0929
     11 N          62.9368   96.4823   -1.9995 N.ar    1  UNL1       -0.2451
     12 C          64.4216   96.5619   -2.1975 C.ar    1  UNL1        0.0987
     13 C          65.3406   95.7891   -1.2984 C.ar    1  UNL1        0.0238
     14 C          64.7749   94.9368   -0.2014 C.ar    1  UNL1        0.0397
     15 C          63.2901   94.8572   -0.0034 C.ar    1  UNL1        0.1516
     16 O          62.7244   94.0049    1.0937 O.3     1  UNL1       -0.4813
     17 C          62.1586   93.1526    2.1907 C.3     1  UNL1        0.0616
     18 C          61.5929   92.3003    3.2877 C.3     1  UNL1        0.0985
     19 H          61.4359   90.6478    5.3518 H       1  UNL1        0.1509
     20 C          59.8957   89.7433    6.5789 C.3     1  UNL1        0.0774
     21 C          58.8755   88.7552    7.0612 C.3     1  UNL1        0.0259
     22 C          59.9361   89.2551    7.9966 C.3     1  UNL1        0.0420
     23 C          60.5718   89.2619    9.3552 C.ar    1  UNL1       -0.0208
     24 C          61.7137   88.3361    9.6536 C.ar    1  UNL1       -0.0042
     25 C          62.3494   88.3429   11.0122 C.ar    1  UNL1       -0.0003
     26 C          61.8432   89.2755   12.0725 C.ar    1  UNL1       -0.0000
     27 C          60.7014   90.2014   11.7740 C.ar    1  UNL1       -0.0003
     28 C          60.0657   90.1945   10.4154 C.ar    1  UNL1       -0.0042
@<TRIPOS>BOND
     1     1     2    2
     2     2     3   am
     3    20     3    1
     4    20    21    1
     5    21    22    1
     6    22    23    1
     7    23    24   ar
     8    24    25   ar
     9    25    26   ar
    10    26    27   ar
    11    27    28   ar
    12     2     4   am
    13     4     5    1
    14     5     6    1
    15     6     7    1
    16     7     8    1
    17     8     9    1
    18     9    10    1
    19    10    11   ar
    20    11    12   ar
    21    12    13   ar
    22    13    14   ar
    23    14    15   ar
    24    15    16    1
    25     7    17    1
    26    17    18    1
    27    22    20    1
    28    28    23   ar
    29    18     4    1
    30    16     7    1
    31    15    10   ar
    32     3    19    1
@<TRIPOS>MOLECULE
*****
 28 32 0 0 0
SMALL
GASTEIGER

@<TRIPOS>ATOM
      1 O          64.0681   86.9332   16.0902 O.2     1  UNL1       -0.2526
      2 C          63.8758   87.4016   14.6782 C.2     1  UNL1        0.3039
      3 N          63.2268   86.4997   13.6707 N.am    1  UNL1       -0.2901
      4 N          64.3325   88.7721   14.2739 N.am    1  UNL1       -0.2640
      5 C          64.9815   89.6740   15.2814 C.3     1  UNL1        0.0985
      6 C          65.4381   91.0444   14.8770 C.3     1  UNL1        0.0616
      7 C          65.2458   91.5128   13.4651 C.3     1  UNL1        0.1368
      8 C          65.8948   92.4148   14.4727 C.3     1  UNL1        0.0465
      9 C          66.3514   93.7852   14.0683 C.3     1  UNL1        0.0525
     10 C          66.1591   94.2535   12.6563 C.ar    1  UNL1        0.0929
     11 N          66.6157   95.6240   12.2520 N.ar    1  UNL1       -0.2451
     12 C          66.4234   96.0924   10.8400 C.ar    1  UNL1        0.0987
     13 C          65.7744   95.1903    9.8324 C.ar    1  UNL1        0.0238
     14 C          65.3178   93.8199   10.2368 C.ar    1  UNL1        0.0397
     15 C          65.5101   93.3516   11.6488 C.ar    1  UNL1        0.1516
     16 O          65.0534   91.9811   12.0531 O.3     1  UNL1       -0.4813
     17 C          64.5968   90.6108   12.4575 C.3     1  UNL1        0.0616
     18 C          64.1402   89.2404   12.8619 C.3     1  UNL1        0.0985
     19 H          63.1006   86.8071   12.7440 H       1  UNL1        0.1509
     20 C          62.7702   85.1292   14.0750 C.3     1  UNL1        0.0774
     21 C          62.1585   84.2110   15.0912 C.3     1  UNL1        0.0259
     22 C          62.5909   83.6738   13.7592 C.3     1  UNL1        0.0420
     23 C          62.7371   82.5235   12.8078 C.ar    1  UNL1       -0.0208
     24 C          63.2323   82.7626   11.4122 C.ar    1  UNL1       -0.0042
     25 C          63.3784   81.6123   10.4608 C.ar    1  UNL1       -0.0003
     26 C          63.0294   80.2226   10.9049 C.ar    1  UNL1       -0.0000
     27 C          62.5342   79.9835   12.3005 C.ar    1  UNL1       -0.0003
     28 C          62.3881   81.1339   13.2519 C.ar    1  UNL1       -0.0042
@<TRIPOS>BOND
     1     1     2    2
     2     2     3   am
     3    20     3    1
     4    20    21    1
     5    21    22    1
     6    22    23    1
     7    23    24   ar
     8    24    25   ar
     9    25    26   ar
    10    26    27   ar
    11    27    28   ar
    12     2     4   am
    13     4     5    1
    14     5     6    1
    15     6     7    1
    16     7     8    1
    17     8     9    1
    18     9    10    1
    19    10    11   ar
    20    11    12   ar
    21    12    13   ar
    22    13    14   ar
    23    14    15   ar
    24    15    16    1
    25     7    17    1
    26    17    18    1
    27    22    20    1
    28    28    23   ar
    29    18     4    1
    30    16     7    1
    31    15    10   ar
    32     3    19    1
@<TRIPOS>MOLECULE
*****
 28 32 0 0 0
SMALL
GASTEIGER

@<TRIPOS>ATOM
      1 O          61.9497   85.4069   12.2036 O.2     1  UNL1       -0.2526
      2 C          62.8776   85.8013   13.3142 C.2     1  UNL1        0.3039
      3 N          63.2336   84.8098   14.3819 N.am    1  UNL1       -0.2901
      4 N          63.4495   87.1874   13.3571 N.am    1  UNL1       -0.2640
      5 C          63.0935   88.1790   12.2894 C.3     1  UNL1        0.0985
      6 C          63.6654   89.5650   12.3323 C.3     1  UNL1        0.0616
      7 C          64.5933   89.9594   13.4429 C.3     1  UNL1        0.1368
      8 C          64.2373   90.9510   12.3751 C.3     1  UNL1        0.0465
      9 C          64.8092   92.3370   12.4180 C.3     1  UNL1        0.0525
     10 C          65.7371   92.7315   13.5286 C.ar    1  UNL1        0.0929
     11 N          66.3091   94.1176   13.5715 N.ar    1  UNL1       -0.2451
     12 C          67.2370   94.5120   14.6821 C.ar    1  UNL1        0.0987
     13 C          67.5930   93.5203   15.7498 C.ar    1  UNL1        0.0238
     14 C          67.0211   92.1343   15.7069 C.ar    1  UNL1        0.0397
     15 C          66.0931   91.7399   14.5963 C.ar    1  UNL1        0.1516
     16 O          65.5212   90.3538   14.5535 O.3     1  UNL1       -0.4813
     17 C          64.9493   88.9678   14.5106 C.3     1  UNL1        0.0616
     18 C          64.3774   87.5818   14.4677 C.3     1  UNL1        0.0985
     19 H          63.8426   85.0686   15.1108 H       1  UNL1        0.1509
     20 C          62.6617   83.4237   14.3391 C.3     1  UNL1        0.0774
     21 C          61.8822   82.3194   14.9893 C.3     1  UNL1        0.0259
     22 C          62.4506   82.1273   13.6146 C.3     1  UNL1        0.0420
     23 C          62.6569   81.2680   12.4026 C.ar    1  UNL1       -0.0208
     24 C          63.0805   81.8904   11.1052 C.ar    1  UNL1       -0.0042
     25 C          63.2868   81.0311    9.8932 C.ar    1  UNL1       -0.0003
     26 C          63.0695   79.5493    9.9785 C.ar    1  UNL1       -0.0000
     27 C          62.6458   78.9269   11.2759 C.ar    1  UNL1       -0.0003
     28 C          62.4395   79.7863   12.4880 C.ar    1  UNL1       -0.0042
@<TRIPOS>BOND
     1     1     2    2
     2     2     3   am
     3    20     3    1
     4    20    21    1
     5    21    22    1
     6    22    23    1
     7    23    24   ar
     8    24    25   ar
     9    25    26   ar
    10    26    27   ar
    11    27    28   ar
    12     2     4   am
    13     4     5    1
    14     5     6    1
    15     6     7    1
    16     7     8    1
    17     8     9    1
    18     9    10    1
    19    10    11   ar
    20    11    12   ar
    21    12    13   ar
    22    13    14   ar
    23    14    15   ar
    24    15    16    1
    25     7    17    1
    26    17    18    1
    27    22    20    1
    28    28    23   ar
    29    18     4    1
    30    16     7    1
    31    15    10   ar
    32     3    19    1
