@<TRIPOS>MOLECULE
*****
 31 34 0 0 0
SMALL
GASTEIGER

@<TRIPOS>ATOM
      1 C          66.3949   91.0501   14.8469 C.3     1  UNL1        0.0285
      2 C          65.2080   90.9883   13.9316 C.2     1  UNL1       -0.0155
      3 C          63.9181   90.2742   14.2075 C.2     1  UNL1       -0.0059
      4 C          63.0157   90.4744   13.0261 C.2     1  UNL1        0.0895
      5 N          63.7479   91.3122   12.0202 N.2     1  UNL1       -0.2578
      6 C          65.1028   91.6299   12.5798 C.3     1  UNL1        0.1970
      7 C          66.1660   92.4458   11.9059 C.2     1  UNL1        0.2490
      8 O          66.9135   93.4902   12.6806 O.2     1  UNL1       -0.2726
      9 N          66.4814   92.2172   10.4574 N.am    1  UNL1       -0.2990
     10 H          65.9907   91.5316    9.9490 H       1  UNL1        0.1498
     11 C          67.5446   93.0331    9.7835 C.3     1  UNL1        0.1114
     12 C          68.8103   92.3772    9.3169 C.3     1  UNL1        0.0278
     13 C          67.3419   94.5049    9.5763 C.ar    1  UNL1        0.0722
     14 C          67.4318   95.2315    8.2672 C.ar    1  UNL1        0.1147
     15 N          67.1592   96.6840    8.5237 N.ar    1  UNL1       -0.2228
     16 C          66.9008   96.8551    9.9914 C.ar    1  UNL1        0.1748
     17 N          67.0138   95.5082   10.6420 N.ar    1  UNL1       -0.3369
     18 H          66.8936   95.3165   11.6001 H       1  UNL1        0.1672
     19 C          63.5885   89.4964   15.4470 C.3     1  UNL1        0.0401
     20 C          63.3462   90.6244   16.4056 C.3     1  UNL1        0.0088
     21 C          63.2144   89.2041   16.8699 C.3     1  UNL1        0.0088
     22 C          63.7162   88.0983   14.9187 C.ar    1  UNL1        0.0001
     23 C          64.0021   86.9647   15.8585 C.ar    1  UNL1       -0.0010
     24 C          64.1299   85.5667   15.3302 C.ar    1  UNL1        0.0228
     25 C          63.9717   85.3022   13.8622 C.ar    1  UNL1        0.1526
     26 N          63.6858   86.4358   12.9224 N.ar    1  UNL1       -0.2402
     27 C          63.5581   87.8338   13.4507 C.ar    1  UNL1        0.0947
     28 C          64.0995   83.9041   13.3340 C.3     1  UNL1        0.4348
     29 F          64.2272   82.5060   12.8057 F       1  UNL1       -0.1644
     30 F          64.6493   83.4550   14.6553 F       1  UNL1       -0.1644
     31 F          63.5497   84.3531   12.0126 F       1  UNL1       -0.1644
@<TRIPOS>BOND
     1     1     2    1
     2     2     3    2
     3     3    19    1
     4    19    22    1
     5    22    23   ar
     6    23    24   ar
     7    24    25   ar
     8    25    28    1
     9    28    29    1
    10    28    30    1
    11    28    31    1
    12    25    26   ar
    13    26    27   ar
    14    19    20    1
    15    20    21    1
    16     3     4    1
    17     4     5    2
    18     5     6    1
    19     6     7    1
    20     7     8    2
    21     7     9   am
    22     9    11    1
    23    11    12    1
    24    11    13    1
    25    13    14   ar
    26    14    15   ar
    27    15    16   ar
    28    16    17   ar
    29     6     2    1
    30    17    13   ar
    31    21    19    1
    32    27    22   ar
    33     9    10    1
    34    17    18    1
@<TRIPOS>MOLECULE
*****
 31 34 0 0 0
SMALL
GASTEIGER

@<TRIPOS>ATOM
      1 C          63.1414   91.1907    9.7648 C.3     1  UNL1        0.0285
      2 C          63.2031   90.8690   11.2287 C.2     1  UNL1       -0.0155
      3 C          62.2207   90.0283   11.9888 C.2     1  UNL1       -0.0059
      4 C          62.6686   89.9713   13.4193 C.2     1  UNL1        0.0895
      5 N          63.9278   90.7769   13.5431 N.2     1  UNL1       -0.2578
      6 C          64.2582   91.3317   12.1893 C.3     1  UNL1        0.1970
      7 C          65.4368   92.1972   11.8547 C.2     1  UNL1        0.2490
      8 O          66.0559   93.0626   12.9119 O.2     1  UNL1       -0.2726
      9 N          65.9961   92.1973   10.4629 N.am    1  UNL1       -0.2990
     10 H          65.5897   91.6294    9.7690 H       1  UNL1        0.1498
     11 C          67.1746   93.0629   10.1284 C.3     1  UNL1        0.1114
     12 C          68.5076   92.4371    9.8422 C.3     1  UNL1        0.0278
     13 C          67.0203   94.5542   10.0800 C.ar    1  UNL1        0.0722
     14 C          67.3918   95.4421    8.9295 C.ar    1  UNL1        0.1147
     15 N          67.0684   96.8560    9.3122 N.ar    1  UNL1       -0.2228
     16 C          66.4970   96.8418   10.6990 C.ar    1  UNL1        0.1748
     17 N          66.4673   95.4192   11.1736 N.ar    1  UNL1       -0.3369
     18 H          66.1419   95.1078   12.0491 H       1  UNL1        0.1672
     19 C          61.0039   89.3615   11.4187 C.3     1  UNL1        0.0401
     20 C          60.0046   90.4699   11.5699 C.3     1  UNL1        0.0088
     21 C          59.5869   89.1600   10.9699 C.3     1  UNL1        0.0088
     22 C          61.5808   88.0216   11.0695 C.ar    1  UNL1        0.0001
     23 C          62.0158   87.7359    9.6627 C.ar    1  UNL1       -0.0010
     24 C          62.5927   86.3960    9.3136 C.ar    1  UNL1        0.0228
     25 C          62.7345   85.3419   10.3713 C.ar    1  UNL1        0.1526
     26 N          62.2995   85.6276   11.7780 N.ar    1  UNL1       -0.2402
     27 C          61.7227   86.9674   12.1272 C.ar    1  UNL1        0.0947
     28 C          63.3114   84.0019   10.0221 C.3     1  UNL1        0.4348
     29 F          63.8883   82.6621    9.6728 F       1  UNL1       -0.1644
     30 F          63.3146   83.6249   11.4739 F       1  UNL1       -0.1644
     31 F          63.3082   84.3790    8.5703 F       1  UNL1       -0.1644
@<TRIPOS>BOND
     1     1     2    1
     2     2     3    2
     3     3    19    1
     4    19    22    1
     5    22    23   ar
     6    23    24   ar
     7    24    25   ar
     8    25    28    1
     9    28    29    1
    10    28    30    1
    11    28    31    1
    12    25    26   ar
    13    26    27   ar
    14    19    20    1
    15    20    21    1
    16     3     4    1
    17     4     5    2
    18     5     6    1
    19     6     7    1
    20     7     8    2
    21     7     9   am
    22     9    11    1
    23    11    12    1
    24    11    13    1
    25    13    14   ar
    26    14    15   ar
    27    15    16   ar
    28    16    17   ar
    29     6     2    1
    30    17    13   ar
    31    21    19    1
    32    27    22   ar
    33     9    10    1
    34    17    18    1
@<TRIPOS>MOLECULE
*****
 31 34 0 0 0
SMALL
GASTEIGER

@<TRIPOS>ATOM
      1 C          64.4285   87.2206   14.0306 C.3     1  UNL1        0.0285
      2 C          63.5221   88.0257   13.1470 C.2     1  UNL1       -0.0155
      3 C          63.3229   89.5111   13.2080 C.2     1  UNL1       -0.0059
      4 C          62.3336   89.8900   12.1460 C.2     1  UNL1        0.0895
      5 N          61.9215   88.6387   11.4288 N.2     1  UNL1       -0.2578
      6 C          62.6561   87.4865   12.0474 C.3     1  UNL1        0.1970
      7 C          62.5442   86.0477   11.6382 C.2     1  UNL1        0.2490
      8 O          61.4012   85.5997   10.7764 O.2     1  UNL1       -0.2726
      9 N          63.5755   85.0569   12.0909 N.am    1  UNL1       -0.2990
     10 H          64.3257   85.3510   12.6565 H       1  UNL1        0.1498
     11 C          63.4636   83.6181   11.6817 C.3     1  UNL1        0.1114
     12 C          63.9048   83.1912   10.3131 C.3     1  UNL1        0.0278
     13 C          62.9106   82.6064   12.6412 C.ar    1  UNL1        0.0722
     14 C          62.4735   82.8749   14.0507 C.ar    1  UNL1        0.1147
     15 N          61.9904   81.5829   14.6402 N.ar    1  UNL1       -0.2228
     16 C          62.1291   80.5159   13.5950 C.ar    1  UNL1        0.1748
     17 N          62.6978   81.1485   12.3595 N.ar    1  UNL1       -0.3369
     18 H          62.8965   80.6877   11.5125 H       1  UNL1        0.1672
     19 C          63.9948   90.4524   14.1632 C.3     1  UNL1        0.0401
     20 C          63.3694   90.0065   15.4517 C.3     1  UNL1        0.0088
     21 C          64.3685   91.1254   15.4506 C.3     1  UNL1        0.0088
     22 C          64.8536   91.2252   13.2064 C.ar    1  UNL1        0.0001
     23 C          64.3240   91.5927   11.8520 C.ar    1  UNL1       -0.0010
     24 C          65.1827   92.3654   10.8953 C.ar    1  UNL1        0.0228
     25 C          66.5711   92.7706   11.2930 C.ar    1  UNL1        0.1526
     26 N          67.1007   92.4031   12.6474 N.ar    1  UNL1       -0.2402
     27 C          66.2420   91.6304   13.6041 C.ar    1  UNL1        0.0947
     28 C          67.4299   93.5434   10.3362 C.3     1  UNL1        0.4348
     29 F          68.2887   94.3161    9.3794 F       1  UNL1       -0.1644
     30 F          66.9061   94.8290   10.9043 F       1  UNL1       -0.1644
     31 F          67.9537   92.2578    9.7680 F       1  UNL1       -0.1644
@<TRIPOS>BOND
     1     1     2    1
     2     2     3    2
     3     3    19    1
     4    19    22    1
     5    22    23   ar
     6    23    24   ar
     7    24    25   ar
     8    25    28    1
     9    28    29    1
    10    28    30    1
    11    28    31    1
    12    25    26   ar
    13    26    27   ar
    14    19    20    1
    15    20    21    1
    16     3     4    1
    17     4     5    2
    18     5     6    1
    19     6     7    1
    20     7     8    2
    21     7     9   am
    22     9    11    1
    23    11    12    1
    24    11    13    1
    25    13    14   ar
    26    14    15   ar
    27    15    16   ar
    28    16    17   ar
    29     6     2    1
    30    17    13   ar
    31    21    19    1
    32    27    22   ar
    33     9    10    1
    34    17    18    1
@<TRIPOS>MOLECULE
*****
 31 34 0 0 0
SMALL
GASTEIGER

@<TRIPOS>ATOM
      1 C          63.4355   90.7145    9.8923 C.3     1  UNL1        0.0285
      2 C          62.7734   90.1778   11.1267 C.2     1  UNL1       -0.0155
      3 C          61.6729   89.1593   11.1650 C.2     1  UNL1       -0.0059
      4 C          61.3151   88.9174   12.6015 C.2     1  UNL1        0.0895
      5 N          62.1944   89.7865   13.4509 N.2     1  UNL1       -0.2578
      6 C          63.0957   90.5654   12.5395 C.3     1  UNL1        0.1970
      7 C          64.1366   91.5579   12.9659 C.2     1  UNL1        0.2490
      8 O          64.3617   91.8287   14.4239 O.2     1  UNL1       -0.2726
      9 N          64.9521   92.2793   11.9342 N.am    1  UNL1       -0.2990
     10 H          64.8043   92.1014   10.9773 H       1  UNL1        0.1498
     11 C          65.9930   93.2717   12.3606 C.3     1  UNL1        0.1114
     12 C          66.2240   94.5117   11.5488 C.3     1  UNL1        0.0278
     13 C          66.8027   93.0240   13.5988 C.ar    1  UNL1        0.0722
     14 C          67.8574   91.9707   13.7664 C.ar    1  UNL1        0.1147
     15 N          68.4064   92.0819   15.1579 N.ar    1  UNL1       -0.2228
     16 C          67.6910   93.2040   15.8502 C.ar    1  UNL1        0.1748
     17 N          66.6998   93.7862   14.8866 N.ar    1  UNL1       -0.3369
     18 H          66.0890   94.5369   15.0676 H       1  UNL1        0.1672
     19 C          61.0412   88.4986    9.9757 C.3     1  UNL1        0.0401
     20 C          60.1982   89.6299    9.4664 C.3     1  UNL1        0.0088
     21 C          60.1929   88.3104    8.7530 C.3     1  UNL1        0.0088
     22 C          61.6649   87.1377   10.0721 C.ar    1  UNL1        0.0001
     23 C          62.4227   86.5757    8.9060 C.ar    1  UNL1       -0.0010
     24 C          63.0463   85.2149    9.0024 C.ar    1  UNL1        0.0228
     25 C          62.9120   84.4161   10.2650 C.ar    1  UNL1        0.1526
     26 N          62.1542   84.9781   11.4310 N.ar    1  UNL1       -0.2402
     27 C          61.5306   86.3389   11.3346 C.ar    1  UNL1        0.0947
     28 C          63.5357   83.0553   10.3613 C.3     1  UNL1        0.4348
     29 F          64.1593   81.6945   10.4577 F       1  UNL1       -0.1644
     30 F          62.5564   82.6825   11.4347 F       1  UNL1       -0.1644
     31 F          64.5149   83.4280    9.2880 F       1  UNL1       -0.1644
@<TRIPOS>BOND
     1     1     2    1
     2     2     3    2
     3     3    19    1
     4    19    22    1
     5    22    23   ar
     6    23    24   ar
     7    24    25   ar
     8    25    28    1
     9    28    29    1
    10    28    30    1
    11    28    31    1
    12    25    26   ar
    13    26    27   ar
    14    19    20    1
    15    20    21    1
    16     3     4    1
    17     4     5    2
    18     5     6    1
    19     6     7    1
    20     7     8    2
    21     7     9   am
    22     9    11    1
    23    11    12    1
    24    11    13    1
    25    13    14   ar
    26    14    15   ar
    27    15    16   ar
    28    16    17   ar
    29     6     2    1
    30    17    13   ar
    31    21    19    1
    32    27    22   ar
    33     9    10    1
    34    17    18    1
@<TRIPOS>MOLECULE
*****
 31 34 0 0 0
SMALL
GASTEIGER

@<TRIPOS>ATOM
      1 C          64.7858   87.0269   15.1448 C.3     1  UNL1        0.0285
      2 C          63.9988   87.5126   13.9637 C.2     1  UNL1       -0.0155
      3 C          63.5841   88.9304   13.7033 C.2     1  UNL1       -0.0059
      4 C          62.8174   88.9597   12.4144 C.2     1  UNL1        0.0895
      5 N          62.7583   87.5600   11.8783 N.2     1  UNL1       -0.2578
      6 C          63.4884   86.6656   12.8358 C.3     1  UNL1        0.1970
      7 C          63.6754   85.1844   12.6909 C.2     1  UNL1        0.2490
      8 O          64.4527   84.4221   13.7227 O.2     1  UNL1       -0.2726
      9 N          63.0850   84.4655   11.5142 N.am    1  UNL1       -0.2990
     10 H          62.5748   84.9659   10.8370 H       1  UNL1        0.1498
     11 C          63.2720   82.9843   11.3693 C.3     1  UNL1        0.1114
     12 C          64.0494   82.4364   10.2092 C.3     1  UNL1        0.0278
     13 C          62.6816   82.0509   12.3844 C.ar    1  UNL1        0.0722
     14 C          62.7344   80.5525   12.3402 C.ar    1  UNL1        0.1147
     15 N          62.0202   80.0278   13.5504 N.ar    1  UNL1       -0.2228
     16 C          61.5262   81.2019   14.3426 C.ar    1  UNL1        0.1748
     17 N          61.9350   82.4523   13.6219 N.ar    1  UNL1       -0.3369
     18 H          61.7463   83.3745   13.9105 H       1  UNL1        0.1672
     19 C          63.8834   90.1115   14.5781 C.3     1  UNL1        0.0401
     20 C          63.2079   89.6757   15.8444 C.3     1  UNL1        0.0088
     21 C          63.9121   90.9989   15.7872 C.3     1  UNL1        0.0088
     22 C          64.6630   90.9575   13.6155 C.ar    1  UNL1        0.0001
     23 C          66.0570   91.3925   13.9580 C.ar    1  UNL1       -0.0010
     24 C          66.8365   92.2385   12.9954 C.ar    1  UNL1        0.0228
     25 C          66.2219   92.6495   11.6902 C.ar    1  UNL1        0.1526
     26 N          64.8279   92.2145   11.3477 N.ar    1  UNL1       -0.2402
     27 C          64.0484   91.3685   12.3103 C.ar    1  UNL1        0.0947
     28 C          67.0015   93.4956   10.7276 C.3     1  UNL1        0.4348
     29 F          67.7810   94.3416    9.7650 F       1  UNL1       -0.1644
     30 F          67.2512   92.2902    9.8704 F       1  UNL1       -0.1644
     31 F          66.7517   94.7009   11.5847 F       1  UNL1       -0.1644
@<TRIPOS>BOND
     1     1     2    1
     2     2     3    2
     3     3    19    1
     4    19    22    1
     5    22    23   ar
     6    23    24   ar
     7    24    25   ar
     8    25    28    1
     9    28    29    1
    10    28    30    1
    11    28    31    1
    12    25    26   ar
    13    26    27   ar
    14    19    20    1
    15    20    21    1
    16     3     4    1
    17     4     5    2
    18     5     6    1
    19     6     7    1
    20     7     8    2
    21     7     9   am
    22     9    11    1
    23    11    12    1
    24    11    13    1
    25    13    14   ar
    26    14    15   ar
    27    15    16   ar
    28    16    17   ar
    29     6     2    1
    30    17    13   ar
    31    21    19    1
    32    27    22   ar
    33     9    10    1
    34    17    18    1
@<TRIPOS>MOLECULE
*****
 31 34 0 0 0
SMALL
GASTEIGER

@<TRIPOS>ATOM
      1 C          63.3914   88.6820    9.6614 C.3     1  UNL1        0.0285
      2 C          62.1182   89.2212   10.2430 C.2     1  UNL1       -0.0155
      3 C          60.7350   88.7165    9.9567 C.2     1  UNL1       -0.0059
      4 C          59.7666   89.5432   10.7498 C.2     1  UNL1        0.0895
      5 N          60.5514   90.5589   11.5261 N.2     1  UNL1       -0.2578
      6 C          62.0048   90.3599   11.2129 C.3     1  UNL1        0.1970
      7 C          63.1446   91.1592   11.7715 C.2     1  UNL1        0.2490
      8 O          63.2746   91.3449   13.2542 O.2     1  UNL1       -0.2726
      9 N          64.1543   91.7726   10.8473 N.am    1  UNL1       -0.2990
     10 H          64.0689   91.6506    9.8741 H       1  UNL1        0.1498
     11 C          65.2941   92.5719   11.4059 C.3     1  UNL1        0.1114
     12 C          65.8539   92.2370   12.7567 C.3     1  UNL1        0.0278
     13 C          65.8741   93.7059   10.6136 C.ar    1  UNL1        0.0722
     14 C          67.1525   93.6707    9.8298 C.ar    1  UNL1        0.1147
     15 N          67.3459   95.0173    9.1980 N.ar    1  UNL1       -0.2228
     16 C          66.1871   95.8848    9.5913 C.ar    1  UNL1        0.1748
     17 N          65.2774   95.0743   10.4663 N.ar    1  UNL1       -0.3369
     18 H          64.4365   95.3857   10.8726 H       1  UNL1        0.1672
     19 C          60.3820   87.5840    9.0387 C.3     1  UNL1        0.0401
     20 C          59.3668   88.2619    8.1671 C.3     1  UNL1        0.0088
     21 C          59.7190   86.8234    7.9288 C.3     1  UNL1        0.0088
     22 C          61.2748   86.5127    9.5916 C.ar    1  UNL1        0.0001
     23 C          62.2288   85.7907    8.6870 C.ar    1  UNL1       -0.0010
     24 C          63.1215   84.7196    9.2398 C.ar    1  UNL1        0.0228
     25 C          63.0601   84.3704   10.6973 C.ar    1  UNL1        0.1526
     26 N          62.1060   85.0924   11.6020 N.ar    1  UNL1       -0.2402
     27 C          61.2134   86.1636   11.0491 C.ar    1  UNL1        0.0947
     28 C          63.9528   83.2992   11.2502 C.3     1  UNL1        0.4348
     29 F          64.8455   82.2280   11.8030 F       1  UNL1       -0.1644
     30 F          64.5829   83.1273    9.8999 F       1  UNL1       -0.1644
     31 F          63.3227   83.4710   12.6005 F       1  UNL1       -0.1644
@<TRIPOS>BOND
     1     1     2    1
     2     2     3    2
     3     3    19    1
     4    19    22    1
     5    22    23   ar
     6    23    24   ar
     7    24    25   ar
     8    25    28    1
     9    28    29    1
    10    28    30    1
    11    28    31    1
    12    25    26   ar
    13    26    27   ar
    14    19    20    1
    15    20    21    1
    16     3     4    1
    17     4     5    2
    18     5     6    1
    19     6     7    1
    20     7     8    2
    21     7     9   am
    22     9    11    1
    23    11    12    1
    24    11    13    1
    25    13    14   ar
    26    14    15   ar
    27    15    16   ar
    28    16    17   ar
    29     6     2    1
    30    17    13   ar
    31    21    19    1
    32    27    22   ar
    33     9    10    1
    34    17    18    1
@<TRIPOS>MOLECULE
*****
 31 34 0 0 0
SMALL
GASTEIGER

@<TRIPOS>ATOM
      1 C          63.4828   90.6713   10.0431 C.3     1  UNL1        0.0285
      2 C          62.9719   90.3112   11.4068 C.2     1  UNL1       -0.0155
      3 C          61.7781   89.4526   11.7026 C.2     1  UNL1       -0.0059
      4 C          61.6336   89.3573   13.1926 C.2     1  UNL1        0.0895
      5 N          62.7381   90.1569   13.8175 N.2     1  UNL1       -0.2578
      6 C          63.5653   90.7465   12.7139 C.3     1  UNL1        0.1970
      7 C          64.7736   91.6183   12.8869 C.2     1  UNL1        0.2490
      8 O          65.8866   91.1858   13.7946 O.2     1  UNL1       -0.2726
      9 N          64.8687   92.9225   12.1521 N.am    1  UNL1       -0.2990
     10 H          64.1382   93.2064   11.5563 H       1  UNL1        0.1498
     11 C          66.0771   93.7944   12.3251 C.3     1  UNL1        0.1114
     12 C          66.6357   94.0386   13.6957 C.3     1  UNL1        0.0278
     13 C          66.7268   94.4220   11.1276 C.ar    1  UNL1        0.0722
     14 C          66.5929   95.8537   10.7010 C.ar    1  UNL1        0.1147
     15 N          67.4078   96.0445    9.4562 N.ar    1  UNL1       -0.2228
     16 C          68.0453   94.7306    9.1135 C.ar    1  UNL1        0.1748
     17 N          67.6244   93.7278   10.1465 N.ar    1  UNL1       -0.3369
     18 H          67.8905   92.7804   10.1755 H       1  UNL1        0.1672
     19 C          60.8855   88.8033   10.6869 C.3     1  UNL1        0.0401
     20 C          59.9224   89.9247   10.4317 C.3     1  UNL1        0.0088
     21 C          59.7661   88.6217    9.7051 C.3     1  UNL1        0.0088
     22 C          61.5387   87.4565   10.5893 C.ar    1  UNL1        0.0001
     23 C          61.6048   86.5659   11.7945 C.ar    1  UNL1       -0.0010
     24 C          62.2579   85.2192   11.6969 C.ar    1  UNL1        0.0228
     25 C          62.8450   84.7630   10.3941 C.ar    1  UNL1        0.1526
     26 N          62.7788   85.6535    9.1889 N.ar    1  UNL1       -0.2402
     27 C          62.1257   87.0003    9.2865 C.ar    1  UNL1        0.0947
     28 C          63.4981   83.4161   10.2965 C.3     1  UNL1        0.4348
     29 F          64.1512   82.0693   10.1990 F       1  UNL1       -0.1644
     30 F          64.1434   83.8226    9.0049 F       1  UNL1       -0.1644
     31 F          62.8528   83.0096   11.5881 F       1  UNL1       -0.1644
@<TRIPOS>BOND
     1     1     2    1
     2     2     3    2
     3     3    19    1
     4    19    22    1
     5    22    23   ar
     6    23    24   ar
     7    24    25   ar
     8    25    28    1
     9    28    29    1
    10    28    30    1
    11    28    31    1
    12    25    26   ar
    13    26    27   ar
    14    19    20    1
    15    20    21    1
    16     3     4    1
    17     4     5    2
    18     5     6    1
    19     6     7    1
    20     7     8    2
    21     7     9   am
    22     9    11    1
    23    11    12    1
    24    11    13    1
    25    13    14   ar
    26    14    15   ar
    27    15    16   ar
    28    16    17   ar
    29     6     2    1
    30    17    13   ar
    31    21    19    1
    32    27    22   ar
    33     9    10    1
    34    17    18    1
@<TRIPOS>MOLECULE
*****
 31 34 0 0 0
SMALL
GASTEIGER

@<TRIPOS>ATOM
      1 C          62.4741   90.0783   12.1122 C.3     1  UNL1        0.0285
      2 C          63.1939   89.0515   12.9355 C.2     1  UNL1       -0.0155
      3 C          64.0133   89.3217   14.1624 C.2     1  UNL1       -0.0059
      4 C          64.5464   88.0114   14.6615 C.2     1  UNL1        0.0895
      5 N          64.0563   86.9315   13.7431 N.2     1  UNL1       -0.2578
      6 C          63.2204   87.5743   12.6763 C.3     1  UNL1        0.1970
      7 C          62.5318   86.8645   11.5484 C.2     1  UNL1        0.2490
      8 O          61.5427   85.7753   11.8403 O.2     1  UNL1       -0.2726
      9 N          62.8325   87.2440   10.1287 N.am    1  UNL1       -0.2990
     10 H          63.4817   87.9589    9.9372 H       1  UNL1        0.1498
     11 C          62.1440   86.5342    9.0008 C.3     1  UNL1        0.1114
     12 C          62.7756   85.3237    8.3795 C.3     1  UNL1        0.0278
     13 C          60.8238   87.0348    8.4942 C.ar    1  UNL1        0.0722
     14 C          59.7096   86.1896    7.9518 C.ar    1  UNL1        0.1147
     15 N          58.5834   87.1011    7.5635 N.ar    1  UNL1       -0.2228
     16 C          59.0016   88.5096    7.8658 C.ar    1  UNL1        0.1748
     17 N          60.3863   88.4687    8.4410 N.ar    1  UNL1       -0.3369
     18 H          60.9151   89.2463    8.7325 H       1  UNL1        0.1672
     19 C          64.2571   90.6660   14.7815 C.3     1  UNL1        0.0401
     20 C          63.4941   90.5049   16.0629 C.3     1  UNL1        0.0088
     21 C          64.2065   91.7923   15.7710 C.3     1  UNL1        0.0088
     22 C          65.1048   91.2940   13.7151 C.ar    1  UNL1        0.0001
     23 C          64.4723   91.7865   12.4474 C.ar    1  UNL1       -0.0010
     24 C          65.3200   92.4144   11.3811 C.ar    1  UNL1        0.0228
     25 C          66.8002   92.5498   11.5825 C.ar    1  UNL1        0.1526
     26 N          67.4328   92.0573   12.8503 N.ar    1  UNL1       -0.2402
     27 C          66.5851   91.4293   13.9166 C.ar    1  UNL1        0.0947
     28 C          67.6480   93.1778   10.5162 C.3     1  UNL1        0.4348
     29 F          68.4956   93.8057    9.4498 F       1  UNL1       -0.1644
     30 F          68.3054   91.8542   10.2593 F       1  UNL1       -0.1644
     31 F          66.9906   94.5013   10.7730 F       1  UNL1       -0.1644
@<TRIPOS>BOND
     1     1     2    1
     2     2     3    2
     3     3    19    1
     4    19    22    1
     5    22    23   ar
     6    23    24   ar
     7    24    25   ar
     8    25    28    1
     9    28    29    1
    10    28    30    1
    11    28    31    1
    12    25    26   ar
    13    26    27   ar
    14    19    20    1
    15    20    21    1
    16     3     4    1
    17     4     5    2
    18     5     6    1
    19     6     7    1
    20     7     8    2
    21     7     9   am
    22     9    11    1
    23    11    12    1
    24    11    13    1
    25    13    14   ar
    26    14    15   ar
    27    15    16   ar
    28    16    17   ar
    29     6     2    1
    30    17    13   ar
    31    21    19    1
    32    27    22   ar
    33     9    10    1
    34    17    18    1
@<TRIPOS>MOLECULE
*****
 31 34 0 0 0
SMALL
GASTEIGER

@<TRIPOS>ATOM
      1 C          62.5168   89.8786   13.7304 C.3     1  UNL1        0.0285
      2 C          62.8097   90.3110   12.3242 C.2     1  UNL1       -0.0155
      3 C          62.0650   89.8793   11.0959 C.2     1  UNL1       -0.0059
      4 C          62.6938   90.5526    9.9121 C.2     1  UNL1        0.0895
      5 N          63.8272   91.4004   10.4089 N.2     1  UNL1       -0.2578
      6 C          63.8988   91.2511   11.8997 C.3     1  UNL1        0.1970
      7 C          64.8861   91.9238   12.8068 C.2     1  UNL1        0.2490
      8 O          65.5954   93.1654   12.3540 O.2     1  UNL1       -0.2726
      9 N          65.1640   91.3547   14.1665 N.am    1  UNL1       -0.2990
     10 H          64.6985   90.5397   14.4636 H       1  UNL1        0.1498
     11 C          66.1514   92.0273   15.0735 C.3     1  UNL1        0.1114
     12 C          65.7076   92.5543   16.4060 C.3     1  UNL1        0.0278
     13 C          67.5824   92.1730   14.6481 C.ar    1  UNL1        0.0722
     14 C          68.6576   92.8961   15.4038 C.ar    1  UNL1        0.1147
     15 N          69.9291   92.7911   14.6150 N.ar    1  UNL1       -0.2228
     16 C          69.6397   92.0031   13.3718 C.ar    1  UNL1        0.1748
     17 N          68.1894   91.6211   13.3923 N.ar    1  UNL1       -0.3369
     18 H          67.7184   91.0997   12.7026 H       1  UNL1        0.1672
     19 C          60.8966   88.9394   11.0578 C.3     1  UNL1        0.0401
     20 C          59.7772   89.9048   11.3126 C.3     1  UNL1        0.0088
     21 C          59.4804   88.4481   11.1128 C.3     1  UNL1        0.0088
     22 C          61.6103   87.6475   10.7898 C.ar    1  UNL1        0.0001
     23 C          61.9186   87.2395    9.3797 C.ar    1  UNL1       -0.0010
     24 C          62.6323   85.9477    9.1118 C.ar    1  UNL1        0.0228
     25 C          63.0377   85.0639   10.2539 C.ar    1  UNL1        0.1526
     26 N          62.7294   85.4719   11.6640 N.ar    1  UNL1       -0.2402
     27 C          62.0157   86.7637   11.9320 C.ar    1  UNL1        0.0947
     28 C          63.7514   83.7720    9.9859 C.3     1  UNL1        0.4348
     29 F          64.4651   82.4802    9.7179 F       1  UNL1       -0.1644
     30 F          64.0720   83.6462   11.4458 F       1  UNL1       -0.1644
     31 F          63.4309   83.8979    8.5260 F       1  UNL1       -0.1644
@<TRIPOS>BOND
     1     1     2    1
     2     2     3    2
     3     3    19    1
     4    19    22    1
     5    22    23   ar
     6    23    24   ar
     7    24    25   ar
     8    25    28    1
     9    28    29    1
    10    28    30    1
    11    28    31    1
    12    25    26   ar
    13    26    27   ar
    14    19    20    1
    15    20    21    1
    16     3     4    1
    17     4     5    2
    18     5     6    1
    19     6     7    1
    20     7     8    2
    21     7     9   am
    22     9    11    1
    23    11    12    1
    24    11    13    1
    25    13    14   ar
    26    14    15   ar
    27    15    16   ar
    28    16    17   ar
    29     6     2    1
    30    17    13   ar
    31    21    19    1
    32    27    22   ar
    33     9    10    1
    34    17    18    1
