@<TRIPOS>MOLECULE
*****
 35 38 0 0 0
SMALL
GASTEIGER

@<TRIPOS>ATOM
      1 N          71.3841   73.8315   13.5822 N.am    1  UNL1       -0.2681
      2 C          72.4827   74.8497   13.6605 C.2     1  UNL1        0.3077
      3 O          73.6327   74.6414   14.6007 O.2     1  UNL1       -0.2522
      4 N          72.4312   76.0764   12.7987 N.am    1  UNL1       -0.2640
      5 C          71.3506   76.4191   11.8164 C.3     1  UNL1        0.0950
      6 C          71.7029   77.7301   11.1785 C.3     1  UNL1        0.0219
      7 C          71.2528   78.7523   10.1772 C.3     1  UNL1        0.0061
      8 C          72.2729   79.8516   10.1463 C.3     1  UNL1        0.0224
      9 C          73.3535   79.5088   11.1286 C.3     1  UNL1        0.0061
     10 C          73.0012   78.1977   11.7665 C.3     1  UNL1        0.0219
     11 C          73.4513   77.1756   12.7679 C.3     1  UNL1        0.0950
     12 H          70.6292   73.9682   12.9651 H       1  UNL1        0.1564
     13 C          71.5383   70.1514   16.1674 C.ar    1  UNL1        0.1058
     14 C          72.1743   70.1408   14.8090 C.ar    1  UNL1        0.0196
     15 C          72.1228   71.3676   13.9472 C.ar    1  UNL1        0.0161
     16 C          71.4354   72.6048   14.4440 C.ar    1  UNL1        0.0527
     17 C          70.7994   72.6154   15.8024 C.ar    1  UNL1        0.0288
     18 C          70.8508   71.3886   16.6641 C.ar    1  UNL1        0.0207
     19 C          71.6411   67.6979   17.8907 C.3     1  UNL1        0.1816
     20 S          71.5897   68.9247   17.0291 S.O2    1  UNL1        0.0105
     21 O          72.3856   68.2164   15.9732 O.2     1  UNL1       -0.1686
     22 O          70.7938   69.6330   18.0849 O.2     1  UNL1       -0.1686
     23 C          70.1120   73.8526   16.2991 C.2     1  UNL1        0.0741
     24 O          69.5621   74.8488   15.3217 O.co2   1  UNL1       -0.5446
     25 O          69.9745   74.0936   17.7732 O.co2   1  UNL1       -0.5446
     26 C          72.2215   81.0782    9.2845 C.ar    1  UNL1       -0.0186
     27 C          72.1606   82.4370    9.9168 C.ar    1  UNL1       -0.0043
     28 C          72.1092   83.6637    9.0551 C.ar    1  UNL1       -0.0003
     29 C          72.1186   83.5315    7.5609 C.ar    1  UNL1       -0.0001
     30 C          72.1795   82.1726    6.9286 C.ar    1  UNL1        0.0035
     31 C          72.2310   80.9460    7.7903 C.ar    1  UNL1        0.0675
     32 C          72.2919   79.5872    7.1581 C.3     1  UNL1        0.4183
     33 F          72.3527   78.2283    6.5258 F       1  UNL1       -0.1659
     34 F          73.6251   79.3472    7.8021 F       1  UNL1       -0.1659
     35 F          70.9586   79.8271    6.5140 F       1  UNL1       -0.1659
@<TRIPOS>UNITY_ATOM_ATTR
24 1
charge -1
@<TRIPOS>BOND
     1    19    20    1
     2    20    21    2
     3    20    22    2
     4    20    13    1
     5    13    14   ar
     6    14    15   ar
     7    15    16   ar
     8    16     1    1
     9     1     2   am
    10     2     3    2
    11     2     4   am
    12     4     5    1
    13     6     5    1
    14     6     7    1
    15     7     8    1
    16     8    26    1
    17    26    27   ar
    18    27    28   ar
    19    28    29   ar
    20    29    30   ar
    21    30    31   ar
    22    31    32    1
    23    32    33    1
    24    32    34    1
    25    32    35    1
    26     8     9    1
    27    10     9    1
    28    10    11    1
    29    16    17   ar
    30    17    23    1
    31    23    24   ar
    32    23    25   ar
    33    17    18   ar
    34    18    13   ar
    35    11     4    1
    36    10     6    1
    37    31    26   ar
    38     1    12    1
@<TRIPOS>MOLECULE
*****
 35 38 0 0 0
SMALL
GASTEIGER

@<TRIPOS>ATOM
      1 N          73.4591   78.4803    9.9075 N.am    1  UNL1       -0.2681
      2 C          72.1978   78.1367   10.6429 C.2     1  UNL1        0.3077
      3 O          70.8715   78.5935   10.1114 O.2     1  UNL1       -0.2522
      4 N          72.2626   77.3363   11.9098 N.am    1  UNL1       -0.2640
      5 C          73.5094   76.8129   12.5592 C.3     1  UNL1        0.0950
      6 C          73.1093   76.0719   13.8005 C.3     1  UNL1        0.0219
      7 C          73.6326   75.2905   14.9691 C.3     1  UNL1        0.0061
      8 C          72.4621   74.8728   15.8091 C.3     1  UNL1        0.0224
      9 C          71.2154   75.3962   15.1596 C.3     1  UNL1        0.0061
     10 C          71.6154   76.1372   13.9183 C.3     1  UNL1        0.0219
     11 C          71.0921   76.9187   12.7498 C.3     1  UNL1        0.0950
     12 H          74.3295   78.1805   10.2563 H       1  UNL1        0.1564
     13 C          73.2648   80.8814    6.1066 C.ar    1  UNL1        0.1058
     14 C          73.5681   79.4135    6.0516 C.ar    1  UNL1        0.0196
     15 C          73.6329   78.6131    7.3186 C.ar    1  UNL1        0.0161
     16 C          73.3943   79.2808    8.6405 C.ar    1  UNL1        0.0527
     17 C          73.0910   80.7487    8.6954 C.ar    1  UNL1        0.0288
     18 C          73.0263   81.5491    7.4285 C.ar    1  UNL1        0.0207
     19 C          73.1354   82.4821    3.5725 C.3     1  UNL1        0.1816
     20 S          73.2001   81.6818    4.8396 S.O2    1  UNL1        0.0105
     21 O          73.6286   80.4764    4.0563 O.2     1  UNL1       -0.1686
     22 O          72.7716   82.8871    5.6228 O.2     1  UNL1       -0.1686
     23 C          72.8525   81.4164   10.0173 C.2     1  UNL1        0.0741
     24 O          71.8361   82.5136   10.1308 O.co2   1  UNL1       -0.5446
     25 O          73.6304   80.9867   11.2257 O.co2   1  UNL1       -0.5446
     26 C          72.5270   74.0724   17.0759 C.ar    1  UNL1       -0.0186
     27 C          73.2358   74.6251   18.2768 C.ar    1  UNL1       -0.0043
     28 C          73.3006   73.8247   19.5438 C.ar    1  UNL1       -0.0003
     29 C          72.6566   72.4716   19.6099 C.ar    1  UNL1       -0.0001
     30 C          71.9478   71.9189   18.4089 C.ar    1  UNL1        0.0035
     31 C          71.8830   72.7193   17.1421 C.ar    1  UNL1        0.0675
     32 C          71.1741   72.1666   15.9412 C.3     1  UNL1        0.4183
     33 F          70.4653   71.6140   14.7403 F       1  UNL1       -0.1659
     34 F          72.4544   71.5401   15.4738 F       1  UNL1       -0.1659
     35 F          69.8939   72.7931   16.4085 F       1  UNL1       -0.1659
@<TRIPOS>UNITY_ATOM_ATTR
24 1
charge -1
@<TRIPOS>BOND
     1    19    20    1
     2    20    21    2
     3    20    22    2
     4    20    13    1
     5    13    14   ar
     6    14    15   ar
     7    15    16   ar
     8    16     1    1
     9     1     2   am
    10     2     3    2
    11     2     4   am
    12     4     5    1
    13     6     5    1
    14     6     7    1
    15     7     8    1
    16     8    26    1
    17    26    27   ar
    18    27    28   ar
    19    28    29   ar
    20    29    30   ar
    21    30    31   ar
    22    31    32    1
    23    32    33    1
    24    32    34    1
    25    32    35    1
    26     8     9    1
    27    10     9    1
    28    10    11    1
    29    16    17   ar
    30    17    23    1
    31    23    24   ar
    32    23    25   ar
    33    17    18   ar
    34    18    13   ar
    35    11     4    1
    36    10     6    1
    37    31    26   ar
    38     1    12    1
@<TRIPOS>MOLECULE
*****
 35 38 0 0 0
SMALL
GASTEIGER

@<TRIPOS>ATOM
      1 N          61.0220   93.0463    1.3931 N.am    1  UNL1       -0.2681
      2 C          59.7471   92.7005    2.1036 C.2     1  UNL1        0.3077
      3 O          58.4256   93.0458    1.4836 O.2     1  UNL1       -0.2522
      4 N          59.7936   92.0093    3.4341 N.am    1  UNL1       -0.2640
      5 C          61.0337   91.6033    4.1738 C.3     1  UNL1        0.0950
      6 C          60.6147   90.9459    5.4553 C.3     1  UNL1        0.0219
      7 C          61.1221   90.2886    6.7045 C.3     1  UNL1        0.0061
      8 C          59.9367   89.8821    7.5288 C.3     1  UNL1        0.0224
      9 C          58.6965   90.2882    6.7890 C.3     1  UNL1        0.0061
     10 C          59.1156   90.9456    5.5075 C.3     1  UNL1        0.0219
     11 C          58.6081   91.6029    4.2583 C.3     1  UNL1        0.0950
     12 H          61.8894   92.8197    1.8000 H       1  UNL1        0.1564
     13 C          60.8827   95.1197   -2.5983 C.ar    1  UNL1        0.1058
     14 C          60.8139   93.6230   -2.5279 C.ar    1  UNL1        0.0196
     15 C          60.8603   92.9319   -1.1974 C.ar    1  UNL1        0.0161
     16 C          60.9756   93.7375    0.0626 C.ar    1  UNL1        0.0527
     17 C          61.0444   95.2343   -0.0078 C.ar    1  UNL1        0.0288
     18 C          60.9980   95.9254   -1.3383 C.ar    1  UNL1        0.0207
     19 C          60.7899   96.5020   -5.2593 C.3     1  UNL1        0.1816
     20 S          60.8363   95.8108   -3.9288 S.O2    1  UNL1        0.0105
     21 O          61.8160   96.8324   -3.4323 O.2     1  UNL1       -0.1686
     22 O          59.8567   94.7892   -4.4253 O.2     1  UNL1       -0.1686
     23 C          61.1597   96.0399    1.2522 C.2     1  UNL1        0.0741
     24 O          60.0432   96.0296    2.2538 O.co2   1  UNL1       -0.5446
     25 O          62.3915   96.8559    1.5106 O.co2   1  UNL1       -0.5446
     26 C          59.9832   89.1910    8.8592 C.ar    1  UNL1       -0.0186
     27 C          59.9614   89.9968   10.1242 C.ar    1  UNL1       -0.0043
     28 C          60.0079   89.3056   11.4547 C.ar    1  UNL1       -0.0003
     29 C          60.0762   87.8086   11.5202 C.ar    1  UNL1       -0.0001
     30 C          60.0979   87.0028   10.2551 C.ar    1  UNL1        0.0035
     31 C          60.0514   87.6939    8.9247 C.ar    1  UNL1        0.0675
     32 C          60.0731   86.8881    7.6598 C.3     1  UNL1        0.4183
     33 F          60.0949   86.0823    6.3948 F       1  UNL1       -0.1659
     34 F          61.5441   86.6524    7.8352 F       1  UNL1       -0.1659
     35 F          58.6022   87.1238    7.4844 F       1  UNL1       -0.1659
@<TRIPOS>UNITY_ATOM_ATTR
24 1
charge -1
@<TRIPOS>BOND
     1    19    20    1
     2    20    21    2
     3    20    22    2
     4    20    13    1
     5    13    14   ar
     6    14    15   ar
     7    15    16   ar
     8    16     1    1
     9     1     2   am
    10     2     3    2
    11     2     4   am
    12     4     5    1
    13     6     5    1
    14     6     7    1
    15     7     8    1
    16     8    26    1
    17    26    27   ar
    18    27    28   ar
    19    28    29   ar
    20    29    30   ar
    21    30    31   ar
    22    31    32    1
    23    32    33    1
    24    32    34    1
    25    32    35    1
    26     8     9    1
    27    10     9    1
    28    10    11    1
    29    16    17   ar
    30    17    23    1
    31    23    24   ar
    32    23    25   ar
    33    17    18   ar
    34    18    13   ar
    35    11     4    1
    36    10     6    1
    37    31    26   ar
    38     1    12    1
@<TRIPOS>MOLECULE
*****
 35 38 0 0 0
SMALL
GASTEIGER

@<TRIPOS>ATOM
      1 N          64.5260   89.8175   12.6358 N.am    1  UNL1       -0.2681
      2 C          63.6374   89.0405   11.7102 C.2     1  UNL1        0.3077
      3 O          63.1391   89.6713   10.4438 O.2     1  UNL1       -0.2522
      4 N          63.2472   87.6328   12.0510 N.am    1  UNL1       -0.2640
      5 C          63.6656   86.8737   13.2752 C.3     1  UNL1        0.0950
      6 C          63.0470   85.5089   13.2081 C.3     1  UNL1        0.0219
      7 C          62.9233   84.1961   13.9233 C.3     1  UNL1        0.0061
      8 C          62.0461   83.3004   13.0997 C.3     1  UNL1        0.0224
      9 C          61.6277   84.0596   11.8755 C.3     1  UNL1        0.0061
     10 C          62.2463   85.4245   11.9425 C.3     1  UNL1        0.0219
     11 C          62.3700   86.7372   11.2274 C.3     1  UNL1        0.0950
     12 H          64.8530   89.4035   13.4670 H       1  UNL1        0.1564
     13 C          65.6968   94.0405   11.6136 C.ar    1  UNL1        0.1058
     14 C          64.9772   93.1964   10.6038 C.ar    1  UNL1        0.0196
     15 C          64.5869   91.7888   10.9446 C.ar    1  UNL1        0.0161
     16 C          64.9163   91.2252   12.2951 C.ar    1  UNL1        0.0527
     17 C          65.6359   92.0692   13.3049 C.ar    1  UNL1        0.0288
     18 C          66.0261   93.4769   12.9641 C.ar    1  UNL1        0.0207
     19 C          66.4773   96.8559   10.9321 C.3     1  UNL1        0.1816
     20 S          66.0870   95.4482   11.2728 S.O2    1  UNL1        0.0105
     21 O          66.1103   95.7950   12.7320 O.2     1  UNL1       -0.1686
     22 O          66.0637   95.1014    9.8137 O.2     1  UNL1       -0.1686
     23 C          65.9652   91.5057   14.6554 C.2     1  UNL1        0.0741
     24 O          64.8629   91.1383   15.6040 O.co2   1  UNL1       -0.5446
     25 O          67.3970   91.3095   15.0573 O.co2   1  UNL1       -0.5446
     26 C          61.6559   81.8928   13.4404 C.ar    1  UNL1       -0.0186
     27 C          60.2867   81.6039   13.9808 C.ar    1  UNL1       -0.0043
     28 C          59.8964   80.1962   14.3215 C.ar    1  UNL1       -0.0003
     29 C          60.8753   79.0774   14.1220 C.ar    1  UNL1       -0.0001
     30 C          62.2446   79.3662   13.5816 C.ar    1  UNL1        0.0035
     31 C          62.6348   80.7738   13.2409 C.ar    1  UNL1        0.0675
     32 C          64.0040   81.0627   12.7006 C.3     1  UNL1        0.4183
     33 F          65.3731   81.3515   12.1603 F       1  UNL1       -0.1659
     34 F          64.5754   80.9380   14.0819 F       1  UNL1       -0.1659
     35 F          63.4326   81.1873   11.3193 F       1  UNL1       -0.1659
@<TRIPOS>UNITY_ATOM_ATTR
24 1
charge -1
@<TRIPOS>BOND
     1    19    20    1
     2    20    21    2
     3    20    22    2
     4    20    13    1
     5    13    14   ar
     6    14    15   ar
     7    15    16   ar
     8    16     1    1
     9     1     2   am
    10     2     3    2
    11     2     4   am
    12     4     5    1
    13     6     5    1
    14     6     7    1
    15     7     8    1
    16     8    26    1
    17    26    27   ar
    18    27    28   ar
    19    28    29   ar
    20    29    30   ar
    21    30    31   ar
    22    31    32    1
    23    32    33    1
    24    32    34    1
    25    32    35    1
    26     8     9    1
    27    10     9    1
    28    10    11    1
    29    16    17   ar
    30    17    23    1
    31    23    24   ar
    32    23    25   ar
    33    17    18   ar
    34    18    13   ar
    35    11     4    1
    36    10     6    1
    37    31    26   ar
    38     1    12    1
